
---------- Begin Simulation Statistics ----------
simSeconds                                   0.000032                       # Number of seconds simulated (Second)
simTicks                                     31684821                       # Number of ticks simulated (Tick)
finalTick                                    31684821                       # Number of ticks from beginning of simulation (restored from checkpoints and never reset) (Tick)
simFreq                                  1000000000000                       # The number of ticks per simulated second ((Tick/Second))
hostSeconds                                      0.06                       # Real time elapsed on the host (Second)
hostTickRate                                495183650                       # The number of ticks simulated per host second (ticks/s) ((Tick/Second))
hostMemory                                   16941880                       # Number of bytes of host memory used (Byte)
simInsts                                         6792                       # Number of instructions simulated (Count)
simOps                                           6801                       # Number of ops (including micro ops) simulated (Count)
hostInstRate                                   105958                       # Simulator instruction rate (inst/s) ((Count/Second))
hostOpRate                                     106088                       # Simulator op (including micro ops) rate (op/s) ((Count/Second))
board.cache_hierarchy.dptw_caches.blockedCycles::no_mshrs            0                       # number of cycles access was blocked (Cycle)
board.cache_hierarchy.dptw_caches.blockedCycles::no_targets            0                       # number of cycles access was blocked (Cycle)
board.cache_hierarchy.dptw_caches.blockedCauses::no_mshrs            0                       # number of times access was blocked (Count)
board.cache_hierarchy.dptw_caches.blockedCauses::no_targets            0                       # number of times access was blocked (Count)
board.cache_hierarchy.dptw_caches.avgBlocked::no_mshrs          nan                       # average number of cycles each access was blocked ((Cycle/Count))
board.cache_hierarchy.dptw_caches.avgBlocked::no_targets          nan                       # average number of cycles each access was blocked ((Cycle/Count))
board.cache_hierarchy.dptw_caches.replacements            0                       # number of replacements (Count)
board.cache_hierarchy.dptw_caches.power_state.pwrStateResidencyTicks::UNDEFINED     31684821                       # Cumulative time (in ticks) in various power states (Tick)
board.cache_hierarchy.dptw_caches.tags.tagsInUse            0                       # Average ticks per tags in use ((Tick/Count))
board.cache_hierarchy.dptw_caches.tags.totalRefs            0                       # Total number of references to valid blocks. (Count)
board.cache_hierarchy.dptw_caches.tags.sampledRefs            0                       # Sample count of references to valid blocks. (Count)
board.cache_hierarchy.dptw_caches.tags.avgRefs          nan                       # Average number of references to valid blocks. ((Count/Count))
board.cache_hierarchy.dptw_caches.tags.warmupTick            0                       # The tick when the warmup percentage was hit. (Tick)
board.cache_hierarchy.dptw_caches.tags.tagAccesses            0                       # Number of tag accesses (Count)
board.cache_hierarchy.dptw_caches.tags.dataAccesses            0                       # Number of data accesses (Count)
board.cache_hierarchy.dptw_caches.tags.power_state.pwrStateResidencyTicks::UNDEFINED     31684821                       # Cumulative time (in ticks) in various power states (Tick)
board.cache_hierarchy.iptw_caches.blockedCycles::no_mshrs            0                       # number of cycles access was blocked (Cycle)
board.cache_hierarchy.iptw_caches.blockedCycles::no_targets            0                       # number of cycles access was blocked (Cycle)
board.cache_hierarchy.iptw_caches.blockedCauses::no_mshrs            0                       # number of times access was blocked (Count)
board.cache_hierarchy.iptw_caches.blockedCauses::no_targets            0                       # number of times access was blocked (Count)
board.cache_hierarchy.iptw_caches.avgBlocked::no_mshrs          nan                       # average number of cycles each access was blocked ((Cycle/Count))
board.cache_hierarchy.iptw_caches.avgBlocked::no_targets          nan                       # average number of cycles each access was blocked ((Cycle/Count))
board.cache_hierarchy.iptw_caches.replacements            0                       # number of replacements (Count)
board.cache_hierarchy.iptw_caches.power_state.pwrStateResidencyTicks::UNDEFINED     31684821                       # Cumulative time (in ticks) in various power states (Tick)
board.cache_hierarchy.iptw_caches.tags.tagsInUse            0                       # Average ticks per tags in use ((Tick/Count))
board.cache_hierarchy.iptw_caches.tags.totalRefs            0                       # Total number of references to valid blocks. (Count)
board.cache_hierarchy.iptw_caches.tags.sampledRefs            0                       # Sample count of references to valid blocks. (Count)
board.cache_hierarchy.iptw_caches.tags.avgRefs          nan                       # Average number of references to valid blocks. ((Count/Count))
board.cache_hierarchy.iptw_caches.tags.warmupTick            0                       # The tick when the warmup percentage was hit. (Tick)
board.cache_hierarchy.iptw_caches.tags.tagAccesses            0                       # Number of tag accesses (Count)
board.cache_hierarchy.iptw_caches.tags.dataAccesses            0                       # Number of data accesses (Count)
board.cache_hierarchy.iptw_caches.tags.power_state.pwrStateResidencyTicks::UNDEFINED     31684821                       # Cumulative time (in ticks) in various power states (Tick)
board.cache_hierarchy.l1dcaches.demandHits::processor.cores.core.data         2362                       # number of demand (read+write) hits (Count)
board.cache_hierarchy.l1dcaches.demandHits::total         2362                       # number of demand (read+write) hits (Count)
board.cache_hierarchy.l1dcaches.overallHits::processor.cores.core.data         2362                       # number of overall hits (Count)
board.cache_hierarchy.l1dcaches.overallHits::total         2362                       # number of overall hits (Count)
board.cache_hierarchy.l1dcaches.demandMisses::processor.cores.core.data          133                       # number of demand (read+write) misses (Count)
board.cache_hierarchy.l1dcaches.demandMisses::total          133                       # number of demand (read+write) misses (Count)
board.cache_hierarchy.l1dcaches.overallMisses::processor.cores.core.data          133                       # number of overall misses (Count)
board.cache_hierarchy.l1dcaches.overallMisses::total          133                       # number of overall misses (Count)
board.cache_hierarchy.l1dcaches.demandMissLatency::processor.cores.core.data      9875215                       # number of demand (read+write) miss ticks (Tick)
board.cache_hierarchy.l1dcaches.demandMissLatency::total      9875215                       # number of demand (read+write) miss ticks (Tick)
board.cache_hierarchy.l1dcaches.overallMissLatency::processor.cores.core.data      9875215                       # number of overall miss ticks (Tick)
board.cache_hierarchy.l1dcaches.overallMissLatency::total      9875215                       # number of overall miss ticks (Tick)
board.cache_hierarchy.l1dcaches.demandAccesses::processor.cores.core.data         2495                       # number of demand (read+write) accesses (Count)
board.cache_hierarchy.l1dcaches.demandAccesses::total         2495                       # number of demand (read+write) accesses (Count)
board.cache_hierarchy.l1dcaches.overallAccesses::processor.cores.core.data         2495                       # number of overall (read+write) accesses (Count)
board.cache_hierarchy.l1dcaches.overallAccesses::total         2495                       # number of overall (read+write) accesses (Count)
board.cache_hierarchy.l1dcaches.demandMissRate::processor.cores.core.data     0.053307                       # miss rate for demand accesses (Ratio)
board.cache_hierarchy.l1dcaches.demandMissRate::total     0.053307                       # miss rate for demand accesses (Ratio)
board.cache_hierarchy.l1dcaches.overallMissRate::processor.cores.core.data     0.053307                       # miss rate for overall accesses (Ratio)
board.cache_hierarchy.l1dcaches.overallMissRate::total     0.053307                       # miss rate for overall accesses (Ratio)
board.cache_hierarchy.l1dcaches.demandAvgMissLatency::processor.cores.core.data 74249.736842                       # average overall miss latency in ticks ((Tick/Count))
board.cache_hierarchy.l1dcaches.demandAvgMissLatency::total 74249.736842                       # average overall miss latency in ticks ((Tick/Count))
board.cache_hierarchy.l1dcaches.overallAvgMissLatency::processor.cores.core.data 74249.736842                       # average overall miss latency ((Tick/Count))
board.cache_hierarchy.l1dcaches.overallAvgMissLatency::total 74249.736842                       # average overall miss latency ((Tick/Count))
board.cache_hierarchy.l1dcaches.blockedCycles::no_mshrs            0                       # number of cycles access was blocked (Cycle)
board.cache_hierarchy.l1dcaches.blockedCycles::no_targets            0                       # number of cycles access was blocked (Cycle)
board.cache_hierarchy.l1dcaches.blockedCauses::no_mshrs            0                       # number of times access was blocked (Count)
board.cache_hierarchy.l1dcaches.blockedCauses::no_targets            0                       # number of times access was blocked (Count)
board.cache_hierarchy.l1dcaches.avgBlocked::no_mshrs          nan                       # average number of cycles each access was blocked ((Cycle/Count))
board.cache_hierarchy.l1dcaches.avgBlocked::no_targets          nan                       # average number of cycles each access was blocked ((Cycle/Count))
board.cache_hierarchy.l1dcaches.demandMshrMisses::processor.cores.core.data          133                       # number of demand (read+write) MSHR misses (Count)
board.cache_hierarchy.l1dcaches.demandMshrMisses::total          133                       # number of demand (read+write) MSHR misses (Count)
board.cache_hierarchy.l1dcaches.overallMshrMisses::cache_hierarchy.l1dcaches.prefetcher           38                       # number of overall MSHR misses (Count)
board.cache_hierarchy.l1dcaches.overallMshrMisses::processor.cores.core.data          133                       # number of overall MSHR misses (Count)
board.cache_hierarchy.l1dcaches.overallMshrMisses::total          171                       # number of overall MSHR misses (Count)
board.cache_hierarchy.l1dcaches.demandMshrMissLatency::processor.cores.core.data      8767325                       # number of demand (read+write) MSHR miss ticks (Tick)
board.cache_hierarchy.l1dcaches.demandMshrMissLatency::total      8767325                       # number of demand (read+write) MSHR miss ticks (Tick)
board.cache_hierarchy.l1dcaches.overallMshrMissLatency::cache_hierarchy.l1dcaches.prefetcher      1002832                       # number of overall MSHR miss ticks (Tick)
board.cache_hierarchy.l1dcaches.overallMshrMissLatency::processor.cores.core.data      8767325                       # number of overall MSHR miss ticks (Tick)
board.cache_hierarchy.l1dcaches.overallMshrMissLatency::total      9770157                       # number of overall MSHR miss ticks (Tick)
board.cache_hierarchy.l1dcaches.demandMshrMissRate::processor.cores.core.data     0.053307                       # mshr miss ratio for demand accesses (Ratio)
board.cache_hierarchy.l1dcaches.demandMshrMissRate::total     0.053307                       # mshr miss ratio for demand accesses (Ratio)
board.cache_hierarchy.l1dcaches.overallMshrMissRate::cache_hierarchy.l1dcaches.prefetcher          inf                       # mshr miss ratio for overall accesses (Ratio)
board.cache_hierarchy.l1dcaches.overallMshrMissRate::processor.cores.core.data     0.053307                       # mshr miss ratio for overall accesses (Ratio)
board.cache_hierarchy.l1dcaches.overallMshrMissRate::total     0.068537                       # mshr miss ratio for overall accesses (Ratio)
board.cache_hierarchy.l1dcaches.demandAvgMshrMissLatency::processor.cores.core.data 65919.736842                       # average overall mshr miss latency ((Tick/Count))
board.cache_hierarchy.l1dcaches.demandAvgMshrMissLatency::total 65919.736842                       # average overall mshr miss latency ((Tick/Count))
board.cache_hierarchy.l1dcaches.overallAvgMshrMissLatency::cache_hierarchy.l1dcaches.prefetcher 26390.315789                       # average overall mshr miss latency ((Tick/Count))
board.cache_hierarchy.l1dcaches.overallAvgMshrMissLatency::processor.cores.core.data 65919.736842                       # average overall mshr miss latency ((Tick/Count))
board.cache_hierarchy.l1dcaches.overallAvgMshrMissLatency::total 57135.421053                       # average overall mshr miss latency ((Tick/Count))
board.cache_hierarchy.l1dcaches.replacements            0                       # number of replacements (Count)
board.cache_hierarchy.l1dcaches.HardPFReq.mshrMisses::cache_hierarchy.l1dcaches.prefetcher           38                       # number of HardPFReq MSHR misses (Count)
board.cache_hierarchy.l1dcaches.HardPFReq.mshrMisses::total           38                       # number of HardPFReq MSHR misses (Count)
board.cache_hierarchy.l1dcaches.HardPFReq.mshrMissLatency::cache_hierarchy.l1dcaches.prefetcher      1002832                       # number of HardPFReq MSHR miss ticks (Tick)
board.cache_hierarchy.l1dcaches.HardPFReq.mshrMissLatency::total      1002832                       # number of HardPFReq MSHR miss ticks (Tick)
board.cache_hierarchy.l1dcaches.HardPFReq.mshrMissRate::cache_hierarchy.l1dcaches.prefetcher          inf                       # mshr miss rate for HardPFReq accesses (Ratio)
board.cache_hierarchy.l1dcaches.HardPFReq.mshrMissRate::total          inf                       # mshr miss rate for HardPFReq accesses (Ratio)
board.cache_hierarchy.l1dcaches.HardPFReq.avgMshrMissLatency::cache_hierarchy.l1dcaches.prefetcher 26390.315789                       # average HardPFReq mshr miss latency ((Tick/Count))
board.cache_hierarchy.l1dcaches.HardPFReq.avgMshrMissLatency::total 26390.315789                       # average HardPFReq mshr miss latency ((Tick/Count))
board.cache_hierarchy.l1dcaches.LoadLockedReq.hits::processor.cores.core.data            8                       # number of LoadLockedReq hits (Count)
board.cache_hierarchy.l1dcaches.LoadLockedReq.hits::total            8                       # number of LoadLockedReq hits (Count)
board.cache_hierarchy.l1dcaches.LoadLockedReq.misses::processor.cores.core.data            1                       # number of LoadLockedReq misses (Count)
board.cache_hierarchy.l1dcaches.LoadLockedReq.misses::total            1                       # number of LoadLockedReq misses (Count)
board.cache_hierarchy.l1dcaches.LoadLockedReq.missLatency::processor.cores.core.data        80801                       # number of LoadLockedReq miss ticks (Tick)
board.cache_hierarchy.l1dcaches.LoadLockedReq.missLatency::total        80801                       # number of LoadLockedReq miss ticks (Tick)
board.cache_hierarchy.l1dcaches.LoadLockedReq.accesses::processor.cores.core.data            9                       # number of LoadLockedReq accesses(hits+misses) (Count)
board.cache_hierarchy.l1dcaches.LoadLockedReq.accesses::total            9                       # number of LoadLockedReq accesses(hits+misses) (Count)
board.cache_hierarchy.l1dcaches.LoadLockedReq.missRate::processor.cores.core.data     0.111111                       # miss rate for LoadLockedReq accesses (Ratio)
board.cache_hierarchy.l1dcaches.LoadLockedReq.missRate::total     0.111111                       # miss rate for LoadLockedReq accesses (Ratio)
board.cache_hierarchy.l1dcaches.LoadLockedReq.avgMissLatency::processor.cores.core.data        80801                       # average LoadLockedReq miss latency ((Tick/Count))
board.cache_hierarchy.l1dcaches.LoadLockedReq.avgMissLatency::total        80801                       # average LoadLockedReq miss latency ((Tick/Count))
board.cache_hierarchy.l1dcaches.LoadLockedReq.mshrMisses::processor.cores.core.data            1                       # number of LoadLockedReq MSHR misses (Count)
board.cache_hierarchy.l1dcaches.LoadLockedReq.mshrMisses::total            1                       # number of LoadLockedReq MSHR misses (Count)
board.cache_hierarchy.l1dcaches.LoadLockedReq.mshrMissLatency::processor.cores.core.data        72471                       # number of LoadLockedReq MSHR miss ticks (Tick)
board.cache_hierarchy.l1dcaches.LoadLockedReq.mshrMissLatency::total        72471                       # number of LoadLockedReq MSHR miss ticks (Tick)
board.cache_hierarchy.l1dcaches.LoadLockedReq.mshrMissRate::processor.cores.core.data     0.111111                       # mshr miss rate for LoadLockedReq accesses (Ratio)
board.cache_hierarchy.l1dcaches.LoadLockedReq.mshrMissRate::total     0.111111                       # mshr miss rate for LoadLockedReq accesses (Ratio)
board.cache_hierarchy.l1dcaches.LoadLockedReq.avgMshrMissLatency::processor.cores.core.data        72471                       # average LoadLockedReq mshr miss latency ((Tick/Count))
board.cache_hierarchy.l1dcaches.LoadLockedReq.avgMshrMissLatency::total        72471                       # average LoadLockedReq mshr miss latency ((Tick/Count))
board.cache_hierarchy.l1dcaches.ReadReq.hits::processor.cores.core.data         1197                       # number of ReadReq hits (Count)
board.cache_hierarchy.l1dcaches.ReadReq.hits::total         1197                       # number of ReadReq hits (Count)
board.cache_hierarchy.l1dcaches.ReadReq.misses::processor.cores.core.data           76                       # number of ReadReq misses (Count)
board.cache_hierarchy.l1dcaches.ReadReq.misses::total           76                       # number of ReadReq misses (Count)
board.cache_hierarchy.l1dcaches.ReadReq.missLatency::processor.cores.core.data      5900139                       # number of ReadReq miss ticks (Tick)
board.cache_hierarchy.l1dcaches.ReadReq.missLatency::total      5900139                       # number of ReadReq miss ticks (Tick)
board.cache_hierarchy.l1dcaches.ReadReq.accesses::processor.cores.core.data         1273                       # number of ReadReq accesses(hits+misses) (Count)
board.cache_hierarchy.l1dcaches.ReadReq.accesses::total         1273                       # number of ReadReq accesses(hits+misses) (Count)
board.cache_hierarchy.l1dcaches.ReadReq.missRate::processor.cores.core.data     0.059701                       # miss rate for ReadReq accesses (Ratio)
board.cache_hierarchy.l1dcaches.ReadReq.missRate::total     0.059701                       # miss rate for ReadReq accesses (Ratio)
board.cache_hierarchy.l1dcaches.ReadReq.avgMissLatency::processor.cores.core.data 77633.407895                       # average ReadReq miss latency ((Tick/Count))
board.cache_hierarchy.l1dcaches.ReadReq.avgMissLatency::total 77633.407895                       # average ReadReq miss latency ((Tick/Count))
board.cache_hierarchy.l1dcaches.ReadReq.mshrMisses::processor.cores.core.data           76                       # number of ReadReq MSHR misses (Count)
board.cache_hierarchy.l1dcaches.ReadReq.mshrMisses::total           76                       # number of ReadReq MSHR misses (Count)
board.cache_hierarchy.l1dcaches.ReadReq.mshrMissLatency::processor.cores.core.data      5267059                       # number of ReadReq MSHR miss ticks (Tick)
board.cache_hierarchy.l1dcaches.ReadReq.mshrMissLatency::total      5267059                       # number of ReadReq MSHR miss ticks (Tick)
board.cache_hierarchy.l1dcaches.ReadReq.mshrMissRate::processor.cores.core.data     0.059701                       # mshr miss rate for ReadReq accesses (Ratio)
board.cache_hierarchy.l1dcaches.ReadReq.mshrMissRate::total     0.059701                       # mshr miss rate for ReadReq accesses (Ratio)
board.cache_hierarchy.l1dcaches.ReadReq.avgMshrMissLatency::processor.cores.core.data 69303.407895                       # average ReadReq mshr miss latency ((Tick/Count))
board.cache_hierarchy.l1dcaches.ReadReq.avgMshrMissLatency::total 69303.407895                       # average ReadReq mshr miss latency ((Tick/Count))
board.cache_hierarchy.l1dcaches.StoreCondReq.hits::processor.cores.core.data            9                       # number of StoreCondReq hits (Count)
board.cache_hierarchy.l1dcaches.StoreCondReq.hits::total            9                       # number of StoreCondReq hits (Count)
board.cache_hierarchy.l1dcaches.StoreCondReq.accesses::processor.cores.core.data            9                       # number of StoreCondReq accesses(hits+misses) (Count)
board.cache_hierarchy.l1dcaches.StoreCondReq.accesses::total            9                       # number of StoreCondReq accesses(hits+misses) (Count)
board.cache_hierarchy.l1dcaches.SwapReq.hits::processor.cores.core.data           10                       # number of SwapReq hits (Count)
board.cache_hierarchy.l1dcaches.SwapReq.hits::total           10                       # number of SwapReq hits (Count)
board.cache_hierarchy.l1dcaches.SwapReq.misses::processor.cores.core.data            1                       # number of SwapReq misses (Count)
board.cache_hierarchy.l1dcaches.SwapReq.misses::total            1                       # number of SwapReq misses (Count)
board.cache_hierarchy.l1dcaches.SwapReq.missLatency::processor.cores.core.data        66640                       # number of SwapReq miss ticks (Tick)
board.cache_hierarchy.l1dcaches.SwapReq.missLatency::total        66640                       # number of SwapReq miss ticks (Tick)
board.cache_hierarchy.l1dcaches.SwapReq.accesses::processor.cores.core.data           11                       # number of SwapReq accesses(hits+misses) (Count)
board.cache_hierarchy.l1dcaches.SwapReq.accesses::total           11                       # number of SwapReq accesses(hits+misses) (Count)
board.cache_hierarchy.l1dcaches.SwapReq.missRate::processor.cores.core.data     0.090909                       # miss rate for SwapReq accesses (Ratio)
board.cache_hierarchy.l1dcaches.SwapReq.missRate::total     0.090909                       # miss rate for SwapReq accesses (Ratio)
board.cache_hierarchy.l1dcaches.SwapReq.avgMissLatency::processor.cores.core.data        66640                       # average SwapReq miss latency ((Tick/Count))
board.cache_hierarchy.l1dcaches.SwapReq.avgMissLatency::total        66640                       # average SwapReq miss latency ((Tick/Count))
board.cache_hierarchy.l1dcaches.SwapReq.mshrMisses::processor.cores.core.data            1                       # number of SwapReq MSHR misses (Count)
board.cache_hierarchy.l1dcaches.SwapReq.mshrMisses::total            1                       # number of SwapReq MSHR misses (Count)
board.cache_hierarchy.l1dcaches.SwapReq.mshrMissLatency::processor.cores.core.data        58310                       # number of SwapReq MSHR miss ticks (Tick)
board.cache_hierarchy.l1dcaches.SwapReq.mshrMissLatency::total        58310                       # number of SwapReq MSHR miss ticks (Tick)
board.cache_hierarchy.l1dcaches.SwapReq.mshrMissRate::processor.cores.core.data     0.090909                       # mshr miss rate for SwapReq accesses (Ratio)
board.cache_hierarchy.l1dcaches.SwapReq.mshrMissRate::total     0.090909                       # mshr miss rate for SwapReq accesses (Ratio)
board.cache_hierarchy.l1dcaches.SwapReq.avgMshrMissLatency::processor.cores.core.data        58310                       # average SwapReq mshr miss latency ((Tick/Count))
board.cache_hierarchy.l1dcaches.SwapReq.avgMshrMissLatency::total        58310                       # average SwapReq mshr miss latency ((Tick/Count))
board.cache_hierarchy.l1dcaches.WriteReq.hits::processor.cores.core.data         1165                       # number of WriteReq hits (Count)
board.cache_hierarchy.l1dcaches.WriteReq.hits::total         1165                       # number of WriteReq hits (Count)
board.cache_hierarchy.l1dcaches.WriteReq.misses::processor.cores.core.data           57                       # number of WriteReq misses (Count)
board.cache_hierarchy.l1dcaches.WriteReq.misses::total           57                       # number of WriteReq misses (Count)
board.cache_hierarchy.l1dcaches.WriteReq.missLatency::processor.cores.core.data      3975076                       # number of WriteReq miss ticks (Tick)
board.cache_hierarchy.l1dcaches.WriteReq.missLatency::total      3975076                       # number of WriteReq miss ticks (Tick)
board.cache_hierarchy.l1dcaches.WriteReq.accesses::processor.cores.core.data         1222                       # number of WriteReq accesses(hits+misses) (Count)
board.cache_hierarchy.l1dcaches.WriteReq.accesses::total         1222                       # number of WriteReq accesses(hits+misses) (Count)
board.cache_hierarchy.l1dcaches.WriteReq.missRate::processor.cores.core.data     0.046645                       # miss rate for WriteReq accesses (Ratio)
board.cache_hierarchy.l1dcaches.WriteReq.missRate::total     0.046645                       # miss rate for WriteReq accesses (Ratio)
board.cache_hierarchy.l1dcaches.WriteReq.avgMissLatency::processor.cores.core.data 69738.175439                       # average WriteReq miss latency ((Tick/Count))
board.cache_hierarchy.l1dcaches.WriteReq.avgMissLatency::total 69738.175439                       # average WriteReq miss latency ((Tick/Count))
board.cache_hierarchy.l1dcaches.WriteReq.mshrMisses::processor.cores.core.data           57                       # number of WriteReq MSHR misses (Count)
board.cache_hierarchy.l1dcaches.WriteReq.mshrMisses::total           57                       # number of WriteReq MSHR misses (Count)
board.cache_hierarchy.l1dcaches.WriteReq.mshrMissLatency::processor.cores.core.data      3500266                       # number of WriteReq MSHR miss ticks (Tick)
board.cache_hierarchy.l1dcaches.WriteReq.mshrMissLatency::total      3500266                       # number of WriteReq MSHR miss ticks (Tick)
board.cache_hierarchy.l1dcaches.WriteReq.mshrMissRate::processor.cores.core.data     0.046645                       # mshr miss rate for WriteReq accesses (Ratio)
board.cache_hierarchy.l1dcaches.WriteReq.mshrMissRate::total     0.046645                       # mshr miss rate for WriteReq accesses (Ratio)
board.cache_hierarchy.l1dcaches.WriteReq.avgMshrMissLatency::processor.cores.core.data 61408.175439                       # average WriteReq mshr miss latency ((Tick/Count))
board.cache_hierarchy.l1dcaches.WriteReq.avgMshrMissLatency::total 61408.175439                       # average WriteReq mshr miss latency ((Tick/Count))
board.cache_hierarchy.l1dcaches.power_state.pwrStateResidencyTicks::UNDEFINED     31684821                       # Cumulative time (in ticks) in various power states (Tick)
board.cache_hierarchy.l1dcaches.prefetcher.demandMshrMisses          133                       # demands not covered by prefetchs (Count)
board.cache_hierarchy.l1dcaches.prefetcher.pfIssued          139                       # number of hwpf issued (Count)
board.cache_hierarchy.l1dcaches.prefetcher.pfUseful           36                       # number of useful prefetch (Count)
board.cache_hierarchy.l1dcaches.prefetcher.pfUsefulButMiss            0                       # number of hit on prefetch but cache block is not in an usable state (Count)
board.cache_hierarchy.l1dcaches.prefetcher.accuracy     0.258993                       # accuracy of the prefetcher (Count)
board.cache_hierarchy.l1dcaches.prefetcher.coverage     0.213018                       # coverage brought by this prefetcher (Count)
board.cache_hierarchy.l1dcaches.prefetcher.pfHitInCache           83                       # number of prefetches hitting in cache (Count)
board.cache_hierarchy.l1dcaches.prefetcher.pfHitInMSHR           18                       # number of prefetches hitting in a MSHR (Count)
board.cache_hierarchy.l1dcaches.prefetcher.pfHitInWB            0                       # number of prefetches hit in the Write Buffer (Count)
board.cache_hierarchy.l1dcaches.prefetcher.pfLate          101                       # number of late prefetches (hitting in cache, MSHR or WB) (Count)
board.cache_hierarchy.l1dcaches.prefetcher.pfIdentified          139                       # number of prefetch candidates identified (Count)
board.cache_hierarchy.l1dcaches.prefetcher.pfBufferHit            0                       # number of redundant prefetches already in prefetch queue (Count)
board.cache_hierarchy.l1dcaches.prefetcher.pfInCache            0                       # number of redundant prefetches already in cache/mshr dropped (Count)
board.cache_hierarchy.l1dcaches.prefetcher.pfRemovedDemand            0                       # number of prefetches dropped due to a demand for the same address (Count)
board.cache_hierarchy.l1dcaches.prefetcher.pfRemovedFull            0                       # number of prefetches dropped due to prefetch queue size (Count)
board.cache_hierarchy.l1dcaches.prefetcher.pfSpanPage            1                       # number of prefetches that crossed the page (Count)
board.cache_hierarchy.l1dcaches.prefetcher.pfUsefulSpanPage            1                       # number of prefetches that is useful and crossed the page (Count)
board.cache_hierarchy.l1dcaches.prefetcher.power_state.pwrStateResidencyTicks::UNDEFINED     31684821                       # Cumulative time (in ticks) in various power states (Tick)
board.cache_hierarchy.l1dcaches.tags.tagsInUse   108.985569                       # Average ticks per tags in use ((Tick/Count))
board.cache_hierarchy.l1dcaches.tags.totalRefs         2562                       # Total number of references to valid blocks. (Count)
board.cache_hierarchy.l1dcaches.tags.sampledRefs          173                       # Sample count of references to valid blocks. (Count)
board.cache_hierarchy.l1dcaches.tags.avgRefs    14.809249                       # Average number of references to valid blocks. ((Count/Count))
board.cache_hierarchy.l1dcaches.tags.warmupTick       221578                       # The tick when the warmup percentage was hit. (Tick)
board.cache_hierarchy.l1dcaches.tags.occupancies::cache_hierarchy.l1dcaches.prefetcher    27.809212                       # Average occupied blocks per tick, per requestor ((Count/Tick))
board.cache_hierarchy.l1dcaches.tags.occupancies::processor.cores.core.data    81.176356                       # Average occupied blocks per tick, per requestor ((Count/Tick))
board.cache_hierarchy.l1dcaches.tags.avgOccs::cache_hierarchy.l1dcaches.prefetcher     0.054315                       # Average percentage of cache occupancy ((Ratio/Tick))
board.cache_hierarchy.l1dcaches.tags.avgOccs::processor.cores.core.data     0.158548                       # Average percentage of cache occupancy ((Ratio/Tick))
board.cache_hierarchy.l1dcaches.tags.avgOccs::total     0.212862                       # Average percentage of cache occupancy ((Ratio/Tick))
board.cache_hierarchy.l1dcaches.tags.occupanciesTaskId::1022           38                       # Occupied blocks per task id (Count)
board.cache_hierarchy.l1dcaches.tags.occupanciesTaskId::1024          135                       # Occupied blocks per task id (Count)
board.cache_hierarchy.l1dcaches.tags.ageTaskId_1022::1           38                       # Occupied blocks per task id, per block age (Count)
board.cache_hierarchy.l1dcaches.tags.ageTaskId_1024::0           28                       # Occupied blocks per task id, per block age (Count)
board.cache_hierarchy.l1dcaches.tags.ageTaskId_1024::1          107                       # Occupied blocks per task id, per block age (Count)
board.cache_hierarchy.l1dcaches.tags.ratioOccsTaskId::1022     0.074219                       # Ratio of occupied blocks and all blocks, per task id (Ratio)
board.cache_hierarchy.l1dcaches.tags.ratioOccsTaskId::1024     0.263672                       # Ratio of occupied blocks and all blocks, per task id (Ratio)
board.cache_hierarchy.l1dcaches.tags.tagAccesses        20365                       # Number of tag accesses (Count)
board.cache_hierarchy.l1dcaches.tags.dataAccesses        20365                       # Number of data accesses (Count)
board.cache_hierarchy.l1dcaches.tags.power_state.pwrStateResidencyTicks::UNDEFINED     31684821                       # Cumulative time (in ticks) in various power states (Tick)
board.cache_hierarchy.l1icaches.demandHits::processor.cores.core.inst         1406                       # number of demand (read+write) hits (Count)
board.cache_hierarchy.l1icaches.demandHits::total         1406                       # number of demand (read+write) hits (Count)
board.cache_hierarchy.l1icaches.overallHits::processor.cores.core.inst         1406                       # number of overall hits (Count)
board.cache_hierarchy.l1icaches.overallHits::total         1406                       # number of overall hits (Count)
board.cache_hierarchy.l1icaches.demandMisses::processor.cores.core.inst          272                       # number of demand (read+write) misses (Count)
board.cache_hierarchy.l1icaches.demandMisses::total          272                       # number of demand (read+write) misses (Count)
board.cache_hierarchy.l1icaches.overallMisses::processor.cores.core.inst          272                       # number of overall misses (Count)
board.cache_hierarchy.l1icaches.overallMisses::total          272                       # number of overall misses (Count)
board.cache_hierarchy.l1icaches.demandMissLatency::processor.cores.core.inst     17672928                       # number of demand (read+write) miss ticks (Tick)
board.cache_hierarchy.l1icaches.demandMissLatency::total     17672928                       # number of demand (read+write) miss ticks (Tick)
board.cache_hierarchy.l1icaches.overallMissLatency::processor.cores.core.inst     17672928                       # number of overall miss ticks (Tick)
board.cache_hierarchy.l1icaches.overallMissLatency::total     17672928                       # number of overall miss ticks (Tick)
board.cache_hierarchy.l1icaches.demandAccesses::processor.cores.core.inst         1678                       # number of demand (read+write) accesses (Count)
board.cache_hierarchy.l1icaches.demandAccesses::total         1678                       # number of demand (read+write) accesses (Count)
board.cache_hierarchy.l1icaches.overallAccesses::processor.cores.core.inst         1678                       # number of overall (read+write) accesses (Count)
board.cache_hierarchy.l1icaches.overallAccesses::total         1678                       # number of overall (read+write) accesses (Count)
board.cache_hierarchy.l1icaches.demandMissRate::processor.cores.core.inst     0.162098                       # miss rate for demand accesses (Ratio)
board.cache_hierarchy.l1icaches.demandMissRate::total     0.162098                       # miss rate for demand accesses (Ratio)
board.cache_hierarchy.l1icaches.overallMissRate::processor.cores.core.inst     0.162098                       # miss rate for overall accesses (Ratio)
board.cache_hierarchy.l1icaches.overallMissRate::total     0.162098                       # miss rate for overall accesses (Ratio)
board.cache_hierarchy.l1icaches.demandAvgMissLatency::processor.cores.core.inst        64974                       # average overall miss latency in ticks ((Tick/Count))
board.cache_hierarchy.l1icaches.demandAvgMissLatency::total        64974                       # average overall miss latency in ticks ((Tick/Count))
board.cache_hierarchy.l1icaches.overallAvgMissLatency::processor.cores.core.inst        64974                       # average overall miss latency ((Tick/Count))
board.cache_hierarchy.l1icaches.overallAvgMissLatency::total        64974                       # average overall miss latency ((Tick/Count))
board.cache_hierarchy.l1icaches.blockedCycles::no_mshrs            0                       # number of cycles access was blocked (Cycle)
board.cache_hierarchy.l1icaches.blockedCycles::no_targets            0                       # number of cycles access was blocked (Cycle)
board.cache_hierarchy.l1icaches.blockedCauses::no_mshrs            0                       # number of times access was blocked (Count)
board.cache_hierarchy.l1icaches.blockedCauses::no_targets            0                       # number of times access was blocked (Count)
board.cache_hierarchy.l1icaches.avgBlocked::no_mshrs          nan                       # average number of cycles each access was blocked ((Cycle/Count))
board.cache_hierarchy.l1icaches.avgBlocked::no_targets          nan                       # average number of cycles each access was blocked ((Cycle/Count))
board.cache_hierarchy.l1icaches.writebacks::writebacks            6                       # number of writebacks (Count)
board.cache_hierarchy.l1icaches.writebacks::total            6                       # number of writebacks (Count)
board.cache_hierarchy.l1icaches.demandMshrMisses::processor.cores.core.inst          272                       # number of demand (read+write) MSHR misses (Count)
board.cache_hierarchy.l1icaches.demandMshrMisses::total          272                       # number of demand (read+write) MSHR misses (Count)
board.cache_hierarchy.l1icaches.overallMshrMisses::processor.cores.core.inst          272                       # number of overall MSHR misses (Count)
board.cache_hierarchy.l1icaches.overallMshrMisses::total          272                       # number of overall MSHR misses (Count)
board.cache_hierarchy.l1icaches.demandMshrMissLatency::processor.cores.core.inst     17446352                       # number of demand (read+write) MSHR miss ticks (Tick)
board.cache_hierarchy.l1icaches.demandMshrMissLatency::total     17446352                       # number of demand (read+write) MSHR miss ticks (Tick)
board.cache_hierarchy.l1icaches.overallMshrMissLatency::processor.cores.core.inst     17446352                       # number of overall MSHR miss ticks (Tick)
board.cache_hierarchy.l1icaches.overallMshrMissLatency::total     17446352                       # number of overall MSHR miss ticks (Tick)
board.cache_hierarchy.l1icaches.demandMshrMissRate::processor.cores.core.inst     0.162098                       # mshr miss ratio for demand accesses (Ratio)
board.cache_hierarchy.l1icaches.demandMshrMissRate::total     0.162098                       # mshr miss ratio for demand accesses (Ratio)
board.cache_hierarchy.l1icaches.overallMshrMissRate::processor.cores.core.inst     0.162098                       # mshr miss ratio for overall accesses (Ratio)
board.cache_hierarchy.l1icaches.overallMshrMissRate::total     0.162098                       # mshr miss ratio for overall accesses (Ratio)
board.cache_hierarchy.l1icaches.demandAvgMshrMissLatency::processor.cores.core.inst        64141                       # average overall mshr miss latency ((Tick/Count))
board.cache_hierarchy.l1icaches.demandAvgMshrMissLatency::total        64141                       # average overall mshr miss latency ((Tick/Count))
board.cache_hierarchy.l1icaches.overallAvgMshrMissLatency::processor.cores.core.inst        64141                       # average overall mshr miss latency ((Tick/Count))
board.cache_hierarchy.l1icaches.overallAvgMshrMissLatency::total        64141                       # average overall mshr miss latency ((Tick/Count))
board.cache_hierarchy.l1icaches.replacements            6                       # number of replacements (Count)
board.cache_hierarchy.l1icaches.ReadReq.hits::processor.cores.core.inst         1406                       # number of ReadReq hits (Count)
board.cache_hierarchy.l1icaches.ReadReq.hits::total         1406                       # number of ReadReq hits (Count)
board.cache_hierarchy.l1icaches.ReadReq.misses::processor.cores.core.inst          272                       # number of ReadReq misses (Count)
board.cache_hierarchy.l1icaches.ReadReq.misses::total          272                       # number of ReadReq misses (Count)
board.cache_hierarchy.l1icaches.ReadReq.missLatency::processor.cores.core.inst     17672928                       # number of ReadReq miss ticks (Tick)
board.cache_hierarchy.l1icaches.ReadReq.missLatency::total     17672928                       # number of ReadReq miss ticks (Tick)
board.cache_hierarchy.l1icaches.ReadReq.accesses::processor.cores.core.inst         1678                       # number of ReadReq accesses(hits+misses) (Count)
board.cache_hierarchy.l1icaches.ReadReq.accesses::total         1678                       # number of ReadReq accesses(hits+misses) (Count)
board.cache_hierarchy.l1icaches.ReadReq.missRate::processor.cores.core.inst     0.162098                       # miss rate for ReadReq accesses (Ratio)
board.cache_hierarchy.l1icaches.ReadReq.missRate::total     0.162098                       # miss rate for ReadReq accesses (Ratio)
board.cache_hierarchy.l1icaches.ReadReq.avgMissLatency::processor.cores.core.inst        64974                       # average ReadReq miss latency ((Tick/Count))
board.cache_hierarchy.l1icaches.ReadReq.avgMissLatency::total        64974                       # average ReadReq miss latency ((Tick/Count))
board.cache_hierarchy.l1icaches.ReadReq.mshrMisses::processor.cores.core.inst          272                       # number of ReadReq MSHR misses (Count)
board.cache_hierarchy.l1icaches.ReadReq.mshrMisses::total          272                       # number of ReadReq MSHR misses (Count)
board.cache_hierarchy.l1icaches.ReadReq.mshrMissLatency::processor.cores.core.inst     17446352                       # number of ReadReq MSHR miss ticks (Tick)
board.cache_hierarchy.l1icaches.ReadReq.mshrMissLatency::total     17446352                       # number of ReadReq MSHR miss ticks (Tick)
board.cache_hierarchy.l1icaches.ReadReq.mshrMissRate::processor.cores.core.inst     0.162098                       # mshr miss rate for ReadReq accesses (Ratio)
board.cache_hierarchy.l1icaches.ReadReq.mshrMissRate::total     0.162098                       # mshr miss rate for ReadReq accesses (Ratio)
board.cache_hierarchy.l1icaches.ReadReq.avgMshrMissLatency::processor.cores.core.inst        64141                       # average ReadReq mshr miss latency ((Tick/Count))
board.cache_hierarchy.l1icaches.ReadReq.avgMshrMissLatency::total        64141                       # average ReadReq mshr miss latency ((Tick/Count))
board.cache_hierarchy.l1icaches.power_state.pwrStateResidencyTicks::UNDEFINED     31684821                       # Cumulative time (in ticks) in various power states (Tick)
board.cache_hierarchy.l1icaches.prefetcher.demandMshrMisses          272                       # demands not covered by prefetchs (Count)
board.cache_hierarchy.l1icaches.prefetcher.pfIssued            0                       # number of hwpf issued (Count)
board.cache_hierarchy.l1icaches.prefetcher.pfUseful            0                       # number of useful prefetch (Count)
board.cache_hierarchy.l1icaches.prefetcher.pfUsefulButMiss            0                       # number of hit on prefetch but cache block is not in an usable state (Count)
board.cache_hierarchy.l1icaches.prefetcher.accuracy          nan                       # accuracy of the prefetcher (Count)
board.cache_hierarchy.l1icaches.prefetcher.coverage            0                       # coverage brought by this prefetcher (Count)
board.cache_hierarchy.l1icaches.prefetcher.pfHitInCache            0                       # number of prefetches hitting in cache (Count)
board.cache_hierarchy.l1icaches.prefetcher.pfHitInMSHR            0                       # number of prefetches hitting in a MSHR (Count)
board.cache_hierarchy.l1icaches.prefetcher.pfHitInWB            0                       # number of prefetches hit in the Write Buffer (Count)
board.cache_hierarchy.l1icaches.prefetcher.pfLate            0                       # number of late prefetches (hitting in cache, MSHR or WB) (Count)
board.cache_hierarchy.l1icaches.prefetcher.pfIdentified            0                       # number of prefetch candidates identified (Count)
board.cache_hierarchy.l1icaches.prefetcher.pfBufferHit            0                       # number of redundant prefetches already in prefetch queue (Count)
board.cache_hierarchy.l1icaches.prefetcher.pfInCache            0                       # number of redundant prefetches already in cache/mshr dropped (Count)
board.cache_hierarchy.l1icaches.prefetcher.pfRemovedDemand            0                       # number of prefetches dropped due to a demand for the same address (Count)
board.cache_hierarchy.l1icaches.prefetcher.pfRemovedFull            0                       # number of prefetches dropped due to prefetch queue size (Count)
board.cache_hierarchy.l1icaches.prefetcher.pfSpanPage            0                       # number of prefetches that crossed the page (Count)
board.cache_hierarchy.l1icaches.prefetcher.pfUsefulSpanPage            0                       # number of prefetches that is useful and crossed the page (Count)
board.cache_hierarchy.l1icaches.prefetcher.power_state.pwrStateResidencyTicks::UNDEFINED     31684821                       # Cumulative time (in ticks) in various power states (Tick)
board.cache_hierarchy.l1icaches.tags.tagsInUse   131.102825                       # Average ticks per tags in use ((Tick/Count))
board.cache_hierarchy.l1icaches.tags.totalRefs         1678                       # Total number of references to valid blocks. (Count)
board.cache_hierarchy.l1icaches.tags.sampledRefs          272                       # Sample count of references to valid blocks. (Count)
board.cache_hierarchy.l1icaches.tags.avgRefs     6.169118                       # Average number of references to valid blocks. ((Count/Count))
board.cache_hierarchy.l1icaches.tags.warmupTick        76636                       # The tick when the warmup percentage was hit. (Tick)
board.cache_hierarchy.l1icaches.tags.occupancies::processor.cores.core.inst   131.102825                       # Average occupied blocks per tick, per requestor ((Count/Tick))
board.cache_hierarchy.l1icaches.tags.avgOccs::processor.cores.core.inst     0.256060                       # Average percentage of cache occupancy ((Ratio/Tick))
board.cache_hierarchy.l1icaches.tags.avgOccs::total     0.256060                       # Average percentage of cache occupancy ((Ratio/Tick))
board.cache_hierarchy.l1icaches.tags.occupanciesTaskId::1024          266                       # Occupied blocks per task id (Count)
board.cache_hierarchy.l1icaches.tags.ageTaskId_1024::0           96                       # Occupied blocks per task id, per block age (Count)
board.cache_hierarchy.l1icaches.tags.ageTaskId_1024::1          170                       # Occupied blocks per task id, per block age (Count)
board.cache_hierarchy.l1icaches.tags.ratioOccsTaskId::1024     0.519531                       # Ratio of occupied blocks and all blocks, per task id (Ratio)
board.cache_hierarchy.l1icaches.tags.tagAccesses         6984                       # Number of tag accesses (Count)
board.cache_hierarchy.l1icaches.tags.dataAccesses         6984                       # Number of data accesses (Count)
board.cache_hierarchy.l1icaches.tags.power_state.pwrStateResidencyTicks::UNDEFINED     31684821                       # Cumulative time (in ticks) in various power states (Tick)
board.cache_hierarchy.l2bus.transDist::ReadResp          387                       # Transaction distribution (Count)
board.cache_hierarchy.l2bus.transDist::WritebackClean            6                       # Transaction distribution (Count)
board.cache_hierarchy.l2bus.transDist::HardPFReq           50                       # Transaction distribution (Count)
board.cache_hierarchy.l2bus.transDist::ReadExReq           58                       # Transaction distribution (Count)
board.cache_hierarchy.l2bus.transDist::ReadExResp           58                       # Transaction distribution (Count)
board.cache_hierarchy.l2bus.transDist::ReadSharedReq          387                       # Transaction distribution (Count)
board.cache_hierarchy.l2bus.pktCount_board.cache_hierarchy.l1icaches.mem_side_port::board.cache_hierarchy.l2cache.cpu_side_port          550                       # Packet count per connected requestor and responder (Count)
board.cache_hierarchy.l2bus.pktCount_board.cache_hierarchy.l1dcaches.mem_side_port::board.cache_hierarchy.l2cache.cpu_side_port          346                       # Packet count per connected requestor and responder (Count)
board.cache_hierarchy.l2bus.pktCount::total          896                       # Packet count per connected requestor and responder (Count)
board.cache_hierarchy.l2bus.pktSize_board.cache_hierarchy.l1icaches.mem_side_port::board.cache_hierarchy.l2cache.cpu_side_port        17792                       # Cumulative packet size per connected requestor and responder (Byte)
board.cache_hierarchy.l2bus.pktSize_board.cache_hierarchy.l1dcaches.mem_side_port::board.cache_hierarchy.l2cache.cpu_side_port        11072                       # Cumulative packet size per connected requestor and responder (Byte)
board.cache_hierarchy.l2bus.pktSize::total        28864                       # Cumulative packet size per connected requestor and responder (Byte)
board.cache_hierarchy.l2bus.snoops                 50                       # Total snoops (Count)
board.cache_hierarchy.l2bus.snoopTraffic            0                       # Total snoop traffic (Byte)
board.cache_hierarchy.l2bus.snoopFanout::samples          495                       # Request fanout histogram (Count)
board.cache_hierarchy.l2bus.snoopFanout::mean            0                       # Request fanout histogram (Count)
board.cache_hierarchy.l2bus.snoopFanout::stdev            0                       # Request fanout histogram (Count)
board.cache_hierarchy.l2bus.snoopFanout::underflows            0      0.00%      0.00% # Request fanout histogram (Count)
board.cache_hierarchy.l2bus.snoopFanout::0          495    100.00%    100.00% # Request fanout histogram (Count)
board.cache_hierarchy.l2bus.snoopFanout::1            0      0.00%    100.00% # Request fanout histogram (Count)
board.cache_hierarchy.l2bus.snoopFanout::2            0      0.00%    100.00% # Request fanout histogram (Count)
board.cache_hierarchy.l2bus.snoopFanout::3            0      0.00%    100.00% # Request fanout histogram (Count)
board.cache_hierarchy.l2bus.snoopFanout::4            0      0.00%    100.00% # Request fanout histogram (Count)
board.cache_hierarchy.l2bus.snoopFanout::overflows            0      0.00%    100.00% # Request fanout histogram (Count)
board.cache_hierarchy.l2bus.snoopFanout::min_value            0                       # Request fanout histogram (Count)
board.cache_hierarchy.l2bus.snoopFanout::max_value            0                       # Request fanout histogram (Count)
board.cache_hierarchy.l2bus.snoopFanout::total          495                       # Request fanout histogram (Count)
board.cache_hierarchy.l2bus.power_state.pwrStateResidencyTicks::UNDEFINED     31684821                       # Cumulative time (in ticks) in various power states (Tick)
board.cache_hierarchy.l2bus.reqLayer0.occupancy       411409                       # Layer occupancy (ticks) (Tick)
board.cache_hierarchy.l2bus.reqLayer0.utilization          0.0                       # Layer utilization (Ratio)
board.cache_hierarchy.l2bus.respLayer0.occupancy       679728                       # Layer occupancy (ticks) (Tick)
board.cache_hierarchy.l2bus.respLayer0.utilization          0.0                       # Layer utilization (Ratio)
board.cache_hierarchy.l2bus.respLayer1.occupancy       432327                       # Layer occupancy (ticks) (Tick)
board.cache_hierarchy.l2bus.respLayer1.utilization          0.0                       # Layer utilization (Ratio)
board.cache_hierarchy.l2bus.snoop_filter.totRequests          451                       # Total number of requests made to the snoop filter. (Count)
board.cache_hierarchy.l2bus.snoop_filter.hitSingleRequests            6                       # Number of requests hitting in the snoop filter with a single holder of the requested data. (Count)
board.cache_hierarchy.l2bus.snoop_filter.hitMultiRequests            0                       # Number of requests hitting in the snoop filter with multiple (>1) holders of the requested data. (Count)
board.cache_hierarchy.l2bus.snoop_filter.totSnoops            0                       # Total number of snoops made to the snoop filter. (Count)
board.cache_hierarchy.l2bus.snoop_filter.hitSingleSnoops            0                       # Number of snoops hitting in the snoop filter with a single holder of the requested data. (Count)
board.cache_hierarchy.l2bus.snoop_filter.hitMultiSnoops            0                       # Number of snoops hitting in the snoop filter with multiple (>1) holders of the requested data. (Count)
board.cache_hierarchy.l2cache.demandHits::cache_hierarchy.l1dcaches.prefetcher           10                       # number of demand (read+write) hits (Count)
board.cache_hierarchy.l2cache.demandHits::processor.cores.core.inst            1                       # number of demand (read+write) hits (Count)
board.cache_hierarchy.l2cache.demandHits::processor.cores.core.data            2                       # number of demand (read+write) hits (Count)
board.cache_hierarchy.l2cache.demandHits::total           13                       # number of demand (read+write) hits (Count)
board.cache_hierarchy.l2cache.overallHits::cache_hierarchy.l1dcaches.prefetcher           10                       # number of overall hits (Count)
board.cache_hierarchy.l2cache.overallHits::processor.cores.core.inst            1                       # number of overall hits (Count)
board.cache_hierarchy.l2cache.overallHits::processor.cores.core.data            2                       # number of overall hits (Count)
board.cache_hierarchy.l2cache.overallHits::total           13                       # number of overall hits (Count)
board.cache_hierarchy.l2cache.demandMisses::cache_hierarchy.l1dcaches.prefetcher           28                       # number of demand (read+write) misses (Count)
board.cache_hierarchy.l2cache.demandMisses::processor.cores.core.inst          271                       # number of demand (read+write) misses (Count)
board.cache_hierarchy.l2cache.demandMisses::processor.cores.core.data          133                       # number of demand (read+write) misses (Count)
board.cache_hierarchy.l2cache.demandMisses::total          432                       # number of demand (read+write) misses (Count)
board.cache_hierarchy.l2cache.overallMisses::cache_hierarchy.l1dcaches.prefetcher           28                       # number of overall misses (Count)
board.cache_hierarchy.l2cache.overallMisses::processor.cores.core.inst          271                       # number of overall misses (Count)
board.cache_hierarchy.l2cache.overallMisses::processor.cores.core.data          133                       # number of overall misses (Count)
board.cache_hierarchy.l2cache.overallMisses::total          432                       # number of overall misses (Count)
board.cache_hierarchy.l2cache.demandMissLatency::cache_hierarchy.l1dcaches.prefetcher       773794                       # number of demand (read+write) miss ticks (Tick)
board.cache_hierarchy.l2cache.demandMissLatency::processor.cores.core.inst     16975707                       # number of demand (read+write) miss ticks (Tick)
board.cache_hierarchy.l2cache.demandMissLatency::processor.cores.core.data      8634878                       # number of demand (read+write) miss ticks (Tick)
board.cache_hierarchy.l2cache.demandMissLatency::total     26384379                       # number of demand (read+write) miss ticks (Tick)
board.cache_hierarchy.l2cache.overallMissLatency::cache_hierarchy.l1dcaches.prefetcher       773794                       # number of overall miss ticks (Tick)
board.cache_hierarchy.l2cache.overallMissLatency::processor.cores.core.inst     16975707                       # number of overall miss ticks (Tick)
board.cache_hierarchy.l2cache.overallMissLatency::processor.cores.core.data      8634878                       # number of overall miss ticks (Tick)
board.cache_hierarchy.l2cache.overallMissLatency::total     26384379                       # number of overall miss ticks (Tick)
board.cache_hierarchy.l2cache.demandAccesses::cache_hierarchy.l1dcaches.prefetcher           38                       # number of demand (read+write) accesses (Count)
board.cache_hierarchy.l2cache.demandAccesses::processor.cores.core.inst          272                       # number of demand (read+write) accesses (Count)
board.cache_hierarchy.l2cache.demandAccesses::processor.cores.core.data          135                       # number of demand (read+write) accesses (Count)
board.cache_hierarchy.l2cache.demandAccesses::total          445                       # number of demand (read+write) accesses (Count)
board.cache_hierarchy.l2cache.overallAccesses::cache_hierarchy.l1dcaches.prefetcher           38                       # number of overall (read+write) accesses (Count)
board.cache_hierarchy.l2cache.overallAccesses::processor.cores.core.inst          272                       # number of overall (read+write) accesses (Count)
board.cache_hierarchy.l2cache.overallAccesses::processor.cores.core.data          135                       # number of overall (read+write) accesses (Count)
board.cache_hierarchy.l2cache.overallAccesses::total          445                       # number of overall (read+write) accesses (Count)
board.cache_hierarchy.l2cache.demandMissRate::cache_hierarchy.l1dcaches.prefetcher     0.736842                       # miss rate for demand accesses (Ratio)
board.cache_hierarchy.l2cache.demandMissRate::processor.cores.core.inst     0.996324                       # miss rate for demand accesses (Ratio)
board.cache_hierarchy.l2cache.demandMissRate::processor.cores.core.data     0.985185                       # miss rate for demand accesses (Ratio)
board.cache_hierarchy.l2cache.demandMissRate::total     0.970787                       # miss rate for demand accesses (Ratio)
board.cache_hierarchy.l2cache.overallMissRate::cache_hierarchy.l1dcaches.prefetcher     0.736842                       # miss rate for overall accesses (Ratio)
board.cache_hierarchy.l2cache.overallMissRate::processor.cores.core.inst     0.996324                       # miss rate for overall accesses (Ratio)
board.cache_hierarchy.l2cache.overallMissRate::processor.cores.core.data     0.985185                       # miss rate for overall accesses (Ratio)
board.cache_hierarchy.l2cache.overallMissRate::total     0.970787                       # miss rate for overall accesses (Ratio)
board.cache_hierarchy.l2cache.demandAvgMissLatency::cache_hierarchy.l1dcaches.prefetcher 27635.500000                       # average overall miss latency in ticks ((Tick/Count))
board.cache_hierarchy.l2cache.demandAvgMissLatency::processor.cores.core.inst 62640.985240                       # average overall miss latency in ticks ((Tick/Count))
board.cache_hierarchy.l2cache.demandAvgMissLatency::processor.cores.core.data 64923.894737                       # average overall miss latency in ticks ((Tick/Count))
board.cache_hierarchy.l2cache.demandAvgMissLatency::total 61074.951389                       # average overall miss latency in ticks ((Tick/Count))
board.cache_hierarchy.l2cache.overallAvgMissLatency::cache_hierarchy.l1dcaches.prefetcher 27635.500000                       # average overall miss latency ((Tick/Count))
board.cache_hierarchy.l2cache.overallAvgMissLatency::processor.cores.core.inst 62640.985240                       # average overall miss latency ((Tick/Count))
board.cache_hierarchy.l2cache.overallAvgMissLatency::processor.cores.core.data 64923.894737                       # average overall miss latency ((Tick/Count))
board.cache_hierarchy.l2cache.overallAvgMissLatency::total 61074.951389                       # average overall miss latency ((Tick/Count))
board.cache_hierarchy.l2cache.blockedCycles::no_mshrs            0                       # number of cycles access was blocked (Cycle)
board.cache_hierarchy.l2cache.blockedCycles::no_targets            0                       # number of cycles access was blocked (Cycle)
board.cache_hierarchy.l2cache.blockedCauses::no_mshrs            0                       # number of times access was blocked (Count)
board.cache_hierarchy.l2cache.blockedCauses::no_targets            0                       # number of times access was blocked (Count)
board.cache_hierarchy.l2cache.avgBlocked::no_mshrs          nan                       # average number of cycles each access was blocked ((Cycle/Count))
board.cache_hierarchy.l2cache.avgBlocked::no_targets          nan                       # average number of cycles each access was blocked ((Cycle/Count))
board.cache_hierarchy.l2cache.demandMshrHits::cache_hierarchy.l1dcaches.prefetcher           26                       # number of demand (read+write) MSHR hits (Count)
board.cache_hierarchy.l2cache.demandMshrHits::total           26                       # number of demand (read+write) MSHR hits (Count)
board.cache_hierarchy.l2cache.overallMshrHits::cache_hierarchy.l1dcaches.prefetcher           26                       # number of overall MSHR hits (Count)
board.cache_hierarchy.l2cache.overallMshrHits::total           26                       # number of overall MSHR hits (Count)
board.cache_hierarchy.l2cache.demandMshrMisses::cache_hierarchy.l1dcaches.prefetcher            2                       # number of demand (read+write) MSHR misses (Count)
board.cache_hierarchy.l2cache.demandMshrMisses::processor.cores.core.inst          271                       # number of demand (read+write) MSHR misses (Count)
board.cache_hierarchy.l2cache.demandMshrMisses::processor.cores.core.data          133                       # number of demand (read+write) MSHR misses (Count)
board.cache_hierarchy.l2cache.demandMshrMisses::total          406                       # number of demand (read+write) MSHR misses (Count)
board.cache_hierarchy.l2cache.overallMshrMisses::cache_hierarchy.l1dcaches.prefetcher            2                       # number of overall MSHR misses (Count)
board.cache_hierarchy.l2cache.overallMshrMisses::cache_hierarchy.l2cache.prefetcher           40                       # number of overall MSHR misses (Count)
board.cache_hierarchy.l2cache.overallMshrMisses::processor.cores.core.inst          271                       # number of overall MSHR misses (Count)
board.cache_hierarchy.l2cache.overallMshrMisses::processor.cores.core.data          133                       # number of overall MSHR misses (Count)
board.cache_hierarchy.l2cache.overallMshrMisses::total          446                       # number of overall MSHR misses (Count)
board.cache_hierarchy.l2cache.demandMshrMissLatency::cache_hierarchy.l1dcaches.prefetcher       224910                       # number of demand (read+write) MSHR miss ticks (Tick)
board.cache_hierarchy.l2cache.demandMshrMissLatency::processor.cores.core.inst     16749964                       # number of demand (read+write) MSHR miss ticks (Tick)
board.cache_hierarchy.l2cache.demandMshrMissLatency::processor.cores.core.data      8524089                       # number of demand (read+write) MSHR miss ticks (Tick)
board.cache_hierarchy.l2cache.demandMshrMissLatency::total     25498963                       # number of demand (read+write) MSHR miss ticks (Tick)
board.cache_hierarchy.l2cache.overallMshrMissLatency::cache_hierarchy.l1dcaches.prefetcher       224910                       # number of overall MSHR miss ticks (Tick)
board.cache_hierarchy.l2cache.overallMshrMissLatency::cache_hierarchy.l2cache.prefetcher      2293901                       # number of overall MSHR miss ticks (Tick)
board.cache_hierarchy.l2cache.overallMshrMissLatency::processor.cores.core.inst     16749964                       # number of overall MSHR miss ticks (Tick)
board.cache_hierarchy.l2cache.overallMshrMissLatency::processor.cores.core.data      8524089                       # number of overall MSHR miss ticks (Tick)
board.cache_hierarchy.l2cache.overallMshrMissLatency::total     27792864                       # number of overall MSHR miss ticks (Tick)
board.cache_hierarchy.l2cache.demandMshrMissRate::cache_hierarchy.l1dcaches.prefetcher     0.052632                       # mshr miss ratio for demand accesses (Ratio)
board.cache_hierarchy.l2cache.demandMshrMissRate::processor.cores.core.inst     0.996324                       # mshr miss ratio for demand accesses (Ratio)
board.cache_hierarchy.l2cache.demandMshrMissRate::processor.cores.core.data     0.985185                       # mshr miss ratio for demand accesses (Ratio)
board.cache_hierarchy.l2cache.demandMshrMissRate::total     0.912360                       # mshr miss ratio for demand accesses (Ratio)
board.cache_hierarchy.l2cache.overallMshrMissRate::cache_hierarchy.l1dcaches.prefetcher     0.052632                       # mshr miss ratio for overall accesses (Ratio)
board.cache_hierarchy.l2cache.overallMshrMissRate::cache_hierarchy.l2cache.prefetcher          inf                       # mshr miss ratio for overall accesses (Ratio)
board.cache_hierarchy.l2cache.overallMshrMissRate::processor.cores.core.inst     0.996324                       # mshr miss ratio for overall accesses (Ratio)
board.cache_hierarchy.l2cache.overallMshrMissRate::processor.cores.core.data     0.985185                       # mshr miss ratio for overall accesses (Ratio)
board.cache_hierarchy.l2cache.overallMshrMissRate::total     1.002247                       # mshr miss ratio for overall accesses (Ratio)
board.cache_hierarchy.l2cache.demandAvgMshrMissLatency::cache_hierarchy.l1dcaches.prefetcher       112455                       # average overall mshr miss latency ((Tick/Count))
board.cache_hierarchy.l2cache.demandAvgMshrMissLatency::processor.cores.core.inst 61807.985240                       # average overall mshr miss latency ((Tick/Count))
board.cache_hierarchy.l2cache.demandAvgMshrMissLatency::processor.cores.core.data 64090.894737                       # average overall mshr miss latency ((Tick/Count))
board.cache_hierarchy.l2cache.demandAvgMshrMissLatency::total 62805.327586                       # average overall mshr miss latency ((Tick/Count))
board.cache_hierarchy.l2cache.overallAvgMshrMissLatency::cache_hierarchy.l1dcaches.prefetcher       112455                       # average overall mshr miss latency ((Tick/Count))
board.cache_hierarchy.l2cache.overallAvgMshrMissLatency::cache_hierarchy.l2cache.prefetcher 57347.525000                       # average overall mshr miss latency ((Tick/Count))
board.cache_hierarchy.l2cache.overallAvgMshrMissLatency::processor.cores.core.inst 61807.985240                       # average overall mshr miss latency ((Tick/Count))
board.cache_hierarchy.l2cache.overallAvgMshrMissLatency::processor.cores.core.data 64090.894737                       # average overall mshr miss latency ((Tick/Count))
board.cache_hierarchy.l2cache.overallAvgMshrMissLatency::total 62315.838565                       # average overall mshr miss latency ((Tick/Count))
board.cache_hierarchy.l2cache.replacements            0                       # number of replacements (Count)
board.cache_hierarchy.l2cache.HardPFReq.mshrMisses::cache_hierarchy.l2cache.prefetcher           40                       # number of HardPFReq MSHR misses (Count)
board.cache_hierarchy.l2cache.HardPFReq.mshrMisses::total           40                       # number of HardPFReq MSHR misses (Count)
board.cache_hierarchy.l2cache.HardPFReq.mshrMissLatency::cache_hierarchy.l2cache.prefetcher      2293901                       # number of HardPFReq MSHR miss ticks (Tick)
board.cache_hierarchy.l2cache.HardPFReq.mshrMissLatency::total      2293901                       # number of HardPFReq MSHR miss ticks (Tick)
board.cache_hierarchy.l2cache.HardPFReq.mshrMissRate::cache_hierarchy.l2cache.prefetcher          inf                       # mshr miss rate for HardPFReq accesses (Ratio)
board.cache_hierarchy.l2cache.HardPFReq.mshrMissRate::total          inf                       # mshr miss rate for HardPFReq accesses (Ratio)
board.cache_hierarchy.l2cache.HardPFReq.avgMshrMissLatency::cache_hierarchy.l2cache.prefetcher 57347.525000                       # average HardPFReq mshr miss latency ((Tick/Count))
board.cache_hierarchy.l2cache.HardPFReq.avgMshrMissLatency::total 57347.525000                       # average HardPFReq mshr miss latency ((Tick/Count))
board.cache_hierarchy.l2cache.ReadExReq.hits::processor.cores.core.data            2                       # number of ReadExReq hits (Count)
board.cache_hierarchy.l2cache.ReadExReq.hits::total            2                       # number of ReadExReq hits (Count)
board.cache_hierarchy.l2cache.ReadExReq.misses::processor.cores.core.data           56                       # number of ReadExReq misses (Count)
board.cache_hierarchy.l2cache.ReadExReq.misses::total           56                       # number of ReadExReq misses (Count)
board.cache_hierarchy.l2cache.ReadExReq.missLatency::processor.cores.core.data      3426129                       # number of ReadExReq miss ticks (Tick)
board.cache_hierarchy.l2cache.ReadExReq.missLatency::total      3426129                       # number of ReadExReq miss ticks (Tick)
board.cache_hierarchy.l2cache.ReadExReq.accesses::processor.cores.core.data           58                       # number of ReadExReq accesses(hits+misses) (Count)
board.cache_hierarchy.l2cache.ReadExReq.accesses::total           58                       # number of ReadExReq accesses(hits+misses) (Count)
board.cache_hierarchy.l2cache.ReadExReq.missRate::processor.cores.core.data     0.965517                       # miss rate for ReadExReq accesses (Ratio)
board.cache_hierarchy.l2cache.ReadExReq.missRate::total     0.965517                       # miss rate for ReadExReq accesses (Ratio)
board.cache_hierarchy.l2cache.ReadExReq.avgMissLatency::processor.cores.core.data 61180.875000                       # average ReadExReq miss latency ((Tick/Count))
board.cache_hierarchy.l2cache.ReadExReq.avgMissLatency::total 61180.875000                       # average ReadExReq miss latency ((Tick/Count))
board.cache_hierarchy.l2cache.ReadExReq.mshrMisses::processor.cores.core.data           56                       # number of ReadExReq MSHR misses (Count)
board.cache_hierarchy.l2cache.ReadExReq.mshrMisses::total           56                       # number of ReadExReq MSHR misses (Count)
board.cache_hierarchy.l2cache.ReadExReq.mshrMissLatency::processor.cores.core.data      3379481                       # number of ReadExReq MSHR miss ticks (Tick)
board.cache_hierarchy.l2cache.ReadExReq.mshrMissLatency::total      3379481                       # number of ReadExReq MSHR miss ticks (Tick)
board.cache_hierarchy.l2cache.ReadExReq.mshrMissRate::processor.cores.core.data     0.965517                       # mshr miss rate for ReadExReq accesses (Ratio)
board.cache_hierarchy.l2cache.ReadExReq.mshrMissRate::total     0.965517                       # mshr miss rate for ReadExReq accesses (Ratio)
board.cache_hierarchy.l2cache.ReadExReq.avgMshrMissLatency::processor.cores.core.data 60347.875000                       # average ReadExReq mshr miss latency ((Tick/Count))
board.cache_hierarchy.l2cache.ReadExReq.avgMshrMissLatency::total 60347.875000                       # average ReadExReq mshr miss latency ((Tick/Count))
board.cache_hierarchy.l2cache.ReadSharedReq.hits::cache_hierarchy.l1dcaches.prefetcher           10                       # number of ReadSharedReq hits (Count)
board.cache_hierarchy.l2cache.ReadSharedReq.hits::processor.cores.core.inst            1                       # number of ReadSharedReq hits (Count)
board.cache_hierarchy.l2cache.ReadSharedReq.hits::total           11                       # number of ReadSharedReq hits (Count)
board.cache_hierarchy.l2cache.ReadSharedReq.misses::cache_hierarchy.l1dcaches.prefetcher           28                       # number of ReadSharedReq misses (Count)
board.cache_hierarchy.l2cache.ReadSharedReq.misses::processor.cores.core.inst          271                       # number of ReadSharedReq misses (Count)
board.cache_hierarchy.l2cache.ReadSharedReq.misses::processor.cores.core.data           77                       # number of ReadSharedReq misses (Count)
board.cache_hierarchy.l2cache.ReadSharedReq.misses::total          376                       # number of ReadSharedReq misses (Count)
board.cache_hierarchy.l2cache.ReadSharedReq.missLatency::cache_hierarchy.l1dcaches.prefetcher       773794                       # number of ReadSharedReq miss ticks (Tick)
board.cache_hierarchy.l2cache.ReadSharedReq.missLatency::processor.cores.core.inst     16975707                       # number of ReadSharedReq miss ticks (Tick)
board.cache_hierarchy.l2cache.ReadSharedReq.missLatency::processor.cores.core.data      5208749                       # number of ReadSharedReq miss ticks (Tick)
board.cache_hierarchy.l2cache.ReadSharedReq.missLatency::total     22958250                       # number of ReadSharedReq miss ticks (Tick)
board.cache_hierarchy.l2cache.ReadSharedReq.accesses::cache_hierarchy.l1dcaches.prefetcher           38                       # number of ReadSharedReq accesses(hits+misses) (Count)
board.cache_hierarchy.l2cache.ReadSharedReq.accesses::processor.cores.core.inst          272                       # number of ReadSharedReq accesses(hits+misses) (Count)
board.cache_hierarchy.l2cache.ReadSharedReq.accesses::processor.cores.core.data           77                       # number of ReadSharedReq accesses(hits+misses) (Count)
board.cache_hierarchy.l2cache.ReadSharedReq.accesses::total          387                       # number of ReadSharedReq accesses(hits+misses) (Count)
board.cache_hierarchy.l2cache.ReadSharedReq.missRate::cache_hierarchy.l1dcaches.prefetcher     0.736842                       # miss rate for ReadSharedReq accesses (Ratio)
board.cache_hierarchy.l2cache.ReadSharedReq.missRate::processor.cores.core.inst     0.996324                       # miss rate for ReadSharedReq accesses (Ratio)
board.cache_hierarchy.l2cache.ReadSharedReq.missRate::processor.cores.core.data            1                       # miss rate for ReadSharedReq accesses (Ratio)
board.cache_hierarchy.l2cache.ReadSharedReq.missRate::total     0.971576                       # miss rate for ReadSharedReq accesses (Ratio)
board.cache_hierarchy.l2cache.ReadSharedReq.avgMissLatency::cache_hierarchy.l1dcaches.prefetcher 27635.500000                       # average ReadSharedReq miss latency ((Tick/Count))
board.cache_hierarchy.l2cache.ReadSharedReq.avgMissLatency::processor.cores.core.inst 62640.985240                       # average ReadSharedReq miss latency ((Tick/Count))
board.cache_hierarchy.l2cache.ReadSharedReq.avgMissLatency::processor.cores.core.data 67646.090909                       # average ReadSharedReq miss latency ((Tick/Count))
board.cache_hierarchy.l2cache.ReadSharedReq.avgMissLatency::total 61059.175532                       # average ReadSharedReq miss latency ((Tick/Count))
board.cache_hierarchy.l2cache.ReadSharedReq.mshrHits::cache_hierarchy.l1dcaches.prefetcher           26                       # number of ReadSharedReq MSHR hits (Count)
board.cache_hierarchy.l2cache.ReadSharedReq.mshrHits::total           26                       # number of ReadSharedReq MSHR hits (Count)
board.cache_hierarchy.l2cache.ReadSharedReq.mshrMisses::cache_hierarchy.l1dcaches.prefetcher            2                       # number of ReadSharedReq MSHR misses (Count)
board.cache_hierarchy.l2cache.ReadSharedReq.mshrMisses::processor.cores.core.inst          271                       # number of ReadSharedReq MSHR misses (Count)
board.cache_hierarchy.l2cache.ReadSharedReq.mshrMisses::processor.cores.core.data           77                       # number of ReadSharedReq MSHR misses (Count)
board.cache_hierarchy.l2cache.ReadSharedReq.mshrMisses::total          350                       # number of ReadSharedReq MSHR misses (Count)
board.cache_hierarchy.l2cache.ReadSharedReq.mshrMissLatency::cache_hierarchy.l1dcaches.prefetcher       224910                       # number of ReadSharedReq MSHR miss ticks (Tick)
board.cache_hierarchy.l2cache.ReadSharedReq.mshrMissLatency::processor.cores.core.inst     16749964                       # number of ReadSharedReq MSHR miss ticks (Tick)
board.cache_hierarchy.l2cache.ReadSharedReq.mshrMissLatency::processor.cores.core.data      5144608                       # number of ReadSharedReq MSHR miss ticks (Tick)
board.cache_hierarchy.l2cache.ReadSharedReq.mshrMissLatency::total     22119482                       # number of ReadSharedReq MSHR miss ticks (Tick)
board.cache_hierarchy.l2cache.ReadSharedReq.mshrMissRate::cache_hierarchy.l1dcaches.prefetcher     0.052632                       # mshr miss rate for ReadSharedReq accesses (Ratio)
board.cache_hierarchy.l2cache.ReadSharedReq.mshrMissRate::processor.cores.core.inst     0.996324                       # mshr miss rate for ReadSharedReq accesses (Ratio)
board.cache_hierarchy.l2cache.ReadSharedReq.mshrMissRate::processor.cores.core.data            1                       # mshr miss rate for ReadSharedReq accesses (Ratio)
board.cache_hierarchy.l2cache.ReadSharedReq.mshrMissRate::total     0.904393                       # mshr miss rate for ReadSharedReq accesses (Ratio)
board.cache_hierarchy.l2cache.ReadSharedReq.avgMshrMissLatency::cache_hierarchy.l1dcaches.prefetcher       112455                       # average ReadSharedReq mshr miss latency ((Tick/Count))
board.cache_hierarchy.l2cache.ReadSharedReq.avgMshrMissLatency::processor.cores.core.inst 61807.985240                       # average ReadSharedReq mshr miss latency ((Tick/Count))
board.cache_hierarchy.l2cache.ReadSharedReq.avgMshrMissLatency::processor.cores.core.data 66813.090909                       # average ReadSharedReq mshr miss latency ((Tick/Count))
board.cache_hierarchy.l2cache.ReadSharedReq.avgMshrMissLatency::total 63198.520000                       # average ReadSharedReq mshr miss latency ((Tick/Count))
board.cache_hierarchy.l2cache.WritebackClean.hits::writebacks            6                       # number of WritebackClean hits (Count)
board.cache_hierarchy.l2cache.WritebackClean.hits::total            6                       # number of WritebackClean hits (Count)
board.cache_hierarchy.l2cache.WritebackClean.accesses::writebacks            6                       # number of WritebackClean accesses(hits+misses) (Count)
board.cache_hierarchy.l2cache.WritebackClean.accesses::total            6                       # number of WritebackClean accesses(hits+misses) (Count)
[...]
board.processor.cores.core.commitStats0.numInsts         6792                       # Number of instructions committed (thread level) (Count)
board.processor.cores.core.commitStats0.numOps         6801                       # Number of ops (including micro ops) committed (thread level) (Count)
board.processor.cores.core.commitStats0.numInstsNotNOP            0                       # Number of instructions committed excluding NOPs or prefetches (Count)
board.processor.cores.core.commitStats0.numOpsNotNOP            0                       # Number of Ops (including micro ops) Simulated (Count)
board.processor.cores.core.commitStats0.cpi     5.600265                       # CPI: cycles per instruction (thread level) ((Cycle/Count))
board.processor.cores.core.commitStats0.ipc     0.178563                       # IPC: instructions per cycle (thread level) ((Count/Cycle))
board.processor.cores.core.commitStats0.numMemRefs            0                       # Number of memory references committed (Count)
board.processor.cores.core.commitStats0.numFpInsts            0                       # Number of float instructions (Count)
board.processor.cores.core.commitStats0.numIntInsts            0                       # Number of integer instructions (Count)
board.processor.cores.core.commitStats0.numLoadInsts            0                       # Number of load instructions (Count)
board.processor.cores.core.commitStats0.numStoreInsts            0                       # Number of store instructions (Count)
board.processor.cores.core.commitStats0.numVecInsts            0                       # Number of vector instructions (Count)
board.processor.cores.core.commitStats0.committedInstType::No_OpClass           27      0.40%      0.40% # Class of committed instruction. (Count)
board.processor.cores.core.commitStats0.committedInstType::IntAlu         4259     62.62%     63.02% # Class of committed instruction. (Count)
board.processor.cores.core.commitStats0.committedInstType::IntMult            2      0.03%     63.05% # Class of committed instruction. (Count)
board.processor.cores.core.commitStats0.committedInstType::IntDiv            4      0.06%     63.11% # Class of committed instruction. (Count)
board.processor.cores.core.commitStats0.committedInstType::FloatAdd            0      0.00%     63.11% # Class of committed instruction. (Count)
board.processor.cores.core.commitStats0.committedInstType::FloatCmp            0      0.00%     63.11% # Class of committed instruction. (Count)
board.processor.cores.core.commitStats0.committedInstType::FloatCvt            0      0.00%     63.11% # Class of committed instruction. (Count)
board.processor.cores.core.commitStats0.committedInstType::FloatMult            0      0.00%     63.11% # Class of committed instruction. (Count)
board.processor.cores.core.commitStats0.committedInstType::FloatMultAcc            0      0.00%     63.11% # Class of committed instruction. (Count)
board.processor.cores.core.commitStats0.committedInstType::FloatDiv            0      0.00%     63.11% # Class of committed instruction. (Count)
board.processor.cores.core.commitStats0.committedInstType::FloatMisc            0      0.00%     63.11% # Class of committed instruction. (Count)
board.processor.cores.core.commitStats0.committedInstType::FloatSqrt            0      0.00%     63.11% # Class of committed instruction. (Count)
board.processor.cores.core.commitStats0.committedInstType::SimdAdd            0      0.00%     63.11% # Class of committed instruction. (Count)
board.processor.cores.core.commitStats0.committedInstType::SimdAddAcc            0      0.00%     63.11% # Class of committed instruction. (Count)
board.processor.cores.core.commitStats0.committedInstType::SimdAlu            0      0.00%     63.11% # Class of committed instruction. (Count)
board.processor.cores.core.commitStats0.committedInstType::SimdCmp            0      0.00%     63.11% # Class of committed instruction. (Count)
board.processor.cores.core.commitStats0.committedInstType::SimdCvt            0      0.00%     63.11% # Class of committed instruction. (Count)
board.processor.cores.core.commitStats0.committedInstType::SimdMisc            0      0.00%     63.11% # Class of committed instruction. (Count)
board.processor.cores.core.commitStats0.committedInstType::SimdMult            0      0.00%     63.11% # Class of committed instruction. (Count)
board.processor.cores.core.commitStats0.committedInstType::SimdMultAcc            0      0.00%     63.11% # Class of committed instruction. (Count)
board.processor.cores.core.commitStats0.committedInstType::SimdMatMultAcc            0      0.00%     63.11% # Class of committed instruction. (Count)
board.processor.cores.core.commitStats0.committedInstType::SimdShift            0      0.00%     63.11% # Class of committed instruction. (Count)
board.processor.cores.core.commitStats0.committedInstType::SimdShiftAcc            0      0.00%     63.11% # Class of committed instruction. (Count)
board.processor.cores.core.commitStats0.committedInstType::SimdDiv            0      0.00%     63.11% # Class of committed instruction. (Count)
board.processor.cores.core.commitStats0.committedInstType::SimdSqrt            0      0.00%     63.11% # Class of committed instruction. (Count)
board.processor.cores.core.commitStats0.committedInstType::SimdFloatAdd            0      0.00%     63.11% # Class of committed instruction. (Count)
board.processor.cores.core.commitStats0.committedInstType::SimdFloatAlu            0      0.00%     63.11% # Class of committed instruction. (Count)
board.processor.cores.core.commitStats0.committedInstType::SimdFloatCmp            0      0.00%     63.11% # Class of committed instruction. (Count)
board.processor.cores.core.commitStats0.committedInstType::SimdFloatCvt            0      0.00%     63.11% # Class of committed instruction. (Count)
board.processor.cores.core.commitStats0.committedInstType::SimdFloatDiv            0      0.00%     63.11% # Class of committed instruction. (Count)
board.processor.cores.core.commitStats0.committedInstType::SimdFloatMisc            0      0.00%     63.11% # Class of committed instruction. (Count)
board.processor.cores.core.commitStats0.committedInstType::SimdFloatMult            0      0.00%     63.11% # Class of committed instruction. (Count)
board.processor.cores.core.commitStats0.committedInstType::SimdFloatMultAcc            0      0.00%     63.11% # Class of committed instruction. (Count)
board.processor.cores.core.commitStats0.committedInstType::SimdFloatMatMultAcc            0      0.00%     63.11% # Class of committed instruction. (Count)
board.processor.cores.core.commitStats0.committedInstType::SimdFloatSqrt            0      0.00%     63.11% # Class of committed instruction. (Count)
board.processor.cores.core.commitStats0.committedInstType::SimdReduceAdd            0      0.00%     63.11% # Class of committed instruction. (Count)
board.processor.cores.core.commitStats0.committedInstType::SimdReduceAlu            0      0.00%     63.11% # Class of committed instruction. (Count)
board.processor.cores.core.commitStats0.committedInstType::SimdReduceCmp            0      0.00%     63.11% # Class of committed instruction. (Count)
board.processor.cores.core.commitStats0.committedInstType::SimdFloatReduceAdd            0      0.00%     63.11% # Class of committed instruction. (Count)
board.processor.cores.core.commitStats0.committedInstType::SimdFloatReduceCmp            0      0.00%     63.11% # Class of committed instruction. (Count)
board.processor.cores.core.commitStats0.committedInstType::SimdAes            0      0.00%     63.11% # Class of committed instruction. (Count)
board.processor.cores.core.commitStats0.committedInstType::SimdAesMix            0      0.00%     63.11% # Class of committed instruction. (Count)
board.processor.cores.core.commitStats0.committedInstType::SimdSha1Hash            0      0.00%     63.11% # Class of committed instruction. (Count)
board.processor.cores.core.commitStats0.committedInstType::SimdSha1Hash2            0      0.00%     63.11% # Class of committed instruction. (Count)
board.processor.cores.core.commitStats0.committedInstType::SimdSha256Hash            0      0.00%     63.11% # Class of committed instruction. (Count)
board.processor.cores.core.commitStats0.committedInstType::SimdSha256Hash2            0      0.00%     63.11% # Class of committed instruction. (Count)
board.processor.cores.core.commitStats0.committedInstType::SimdShaSigma2            0      0.00%     63.11% # Class of committed instruction. (Count)
board.processor.cores.core.commitStats0.committedInstType::SimdShaSigma3            0      0.00%     63.11% # Class of committed instruction. (Count)
board.processor.cores.core.commitStats0.committedInstType::SimdPredAlu            0      0.00%     63.11% # Class of committed instruction. (Count)
board.processor.cores.core.commitStats0.committedInstType::Matrix            0      0.00%     63.11% # Class of committed instruction. (Count)
board.processor.cores.core.commitStats0.committedInstType::MatrixMov            0      0.00%     63.11% # Class of committed instruction. (Count)
board.processor.cores.core.commitStats0.committedInstType::MatrixOP            0      0.00%     63.11% # Class of committed instruction. (Count)
board.processor.cores.core.commitStats0.committedInstType::MemRead         1275     18.75%     81.86% # Class of committed instruction. (Count)
board.processor.cores.core.commitStats0.committedInstType::MemWrite         1222     17.97%     99.82% # Class of committed instruction. (Count)
board.processor.cores.core.commitStats0.committedInstType::FloatMemRead            0      0.00%     99.82% # Class of committed instruction. (Count)
board.processor.cores.core.commitStats0.committedInstType::FloatMemWrite           12      0.18%    100.00% # Class of committed instruction. (Count)
board.processor.cores.core.commitStats0.committedInstType::IprAccess            0      0.00%    100.00% # Class of committed instruction. (Count)
board.processor.cores.core.commitStats0.committedInstType::InstPrefetch            0      0.00%    100.00% # Class of committed instruction. (Count)
board.processor.cores.core.commitStats0.committedInstType::SimdUnitStrideLoad            0      0.00%    100.00% # Class of committed instruction. (Count)
board.processor.cores.core.commitStats0.committedInstType::SimdUnitStrideStore            0      0.00%    100.00% # Class of committed instruction. (Count)
board.processor.cores.core.commitStats0.committedInstType::SimdUnitStrideMaskLoad            0      0.00%    100.00% # Class of committed instruction. (Count)
board.processor.cores.core.commitStats0.committedInstType::SimdUnitStrideMaskStore            0      0.00%    100.00% # Class of committed instruction. (Count)
board.processor.cores.core.commitStats0.committedInstType::SimdStridedLoad            0      0.00%    100.00% # Class of committed instruction. (Count)
board.processor.cores.core.commitStats0.committedInstType::SimdStridedStore            0      0.00%    100.00% # Class of committed instruction. (Count)
board.processor.cores.core.commitStats0.committedInstType::SimdIndexedLoad            0      0.00%    100.00% # Class of committed instruction. (Count)
board.processor.cores.core.commitStats0.committedInstType::SimdIndexedStore            0      0.00%    100.00% # Class of committed instruction. (Count)
board.processor.cores.core.commitStats0.committedInstType::SimdWholeRegisterLoad            0      0.00%    100.00% # Class of committed instruction. (Count)
board.processor.cores.core.commitStats0.committedInstType::SimdWholeRegisterStore            0      0.00%    100.00% # Class of committed instruction. (Count)
board.processor.cores.core.commitStats0.committedInstType::SimdUnitStrideFaultOnlyFirstLoad            0      0.00%    100.00% # Class of committed instruction. (Count)
board.processor.cores.core.commitStats0.committedInstType::SimdUnitStrideSegmentedLoad            0      0.00%    100.00% # Class of committed instruction. (Count)
board.processor.cores.core.commitStats0.committedInstType::SimdUnitStrideSegmentedStore            0      0.00%    100.00% # Class of committed instruction. (Count)
board.processor.cores.core.commitStats0.committedInstType::SimdExt            0      0.00%    100.00% # Class of committed instruction. (Count)
board.processor.cores.core.commitStats0.committedInstType::SimdFloatExt            0      0.00%    100.00% # Class of committed instruction. (Count)
board.processor.cores.core.commitStats0.committedInstType::SimdConfig            0      0.00%    100.00% # Class of committed instruction. (Count)
board.processor.cores.core.commitStats0.committedInstType::total         6801                       # Class of committed instruction. (Count)
board.processor.cores.core.executeStats0.numInsts            0                       # Number of executed instructions (Count)
board.processor.cores.core.executeStats0.numNop            0                       # Number of nop insts executed (Count)
board.processor.cores.core.executeStats0.numBranches            0                       # Number of branches executed (Count)
board.processor.cores.core.executeStats0.numLoadInsts            0                       # Number of load instructions executed (Count)
board.processor.cores.core.executeStats0.numStoreInsts            0                       # Number of stores executed (Count)
board.processor.cores.core.executeStats0.instRate            0                       # Inst execution rate ((Count/Cycle))
board.processor.cores.core.executeStats0.numFpRegWrites            0                       # Number of times the floating registers were written (Count)
board.processor.cores.core.executeStats0.numMemRefs            0                       # Number of memory refs (Count)
board.processor.cores.core.executeStats0.numVecAluAccesses            0                       # Number of vector alu accesses (Count)
board.processor.cores.core.executeStats0.numDiscardedOps          461                       # Number of ops (including micro ops) which were discarded before commit (Count)
board.processor.cores.core.fetch2.intInstructions         7905                       # Number of integer instructions successfully decoded (Count)
board.processor.cores.core.fetch2.fpInstructions            0                       # Number of floating point instructions successfully decoded (Count)
board.processor.cores.core.fetch2.vecInstructions            0                       # Number of SIMD instructions successfully decoded (Count)
board.processor.cores.core.fetch2.loadInstructions         2443                       # Number of memory load instructions successfully decoded (Count)
board.processor.cores.core.fetch2.storeInstructions         1727                       # Number of memory store instructions successfully decoded (Count)
board.processor.cores.core.fetch2.amoInstructions            0                       # Number of memory atomic instructions successfully decoded (Count)
board.processor.cores.core.fetchStats0.numInsts            0                       # Number of instructions fetched (thread level) (Count)
board.processor.cores.core.fetchStats0.numOps            0                       # Number of ops (including micro ops) fetched (thread level) (Count)
board.processor.cores.core.fetchStats0.fetchRate            0                       # Number of inst fetches per cycle ((Count/Cycle))
board.processor.cores.core.fetchStats0.branchRate            0                       # Number of branch fetches per cycle (Ratio)
board.processor.cores.core.fetchStats0.numFetchSuspends            0                       # Number of times Execute suspended instruction fetching (Count)
board.processor.cores.core.mmu.dtb.readHits            0                       # read hits (Count)
board.processor.cores.core.mmu.dtb.readMisses            0                       # read misses (Count)
board.processor.cores.core.mmu.dtb.readAccesses            0                       # read accesses (Count)
board.processor.cores.core.mmu.dtb.writeHits            0                       # write hits (Count)
board.processor.cores.core.mmu.dtb.writeMisses            0                       # write misses (Count)
board.processor.cores.core.mmu.dtb.writeAccesses            0                       # write accesses (Count)
board.processor.cores.core.mmu.dtb.hits             0                       # Total TLB (read and write) hits (Count)
board.processor.cores.core.mmu.dtb.misses            0                       # Total TLB (read and write) misses (Count)
board.processor.cores.core.mmu.dtb.accesses            0                       # Total TLB (read and write) accesses (Count)
board.processor.cores.core.mmu.dtb.walker.num_4kb_walks            0                       # Completed page walks with 4KB pages (Count)
board.processor.cores.core.mmu.dtb.walker.num_2mb_walks            0                       # Completed page walks with 2MB pages (Count)
board.processor.cores.core.mmu.dtb.walker.power_state.pwrStateResidencyTicks::UNDEFINED     31684821                       # Cumulative time (in ticks) in various power states (Tick)
board.processor.cores.core.mmu.itb.readHits            0                       # read hits (Count)
board.processor.cores.core.mmu.itb.readMisses            0                       # read misses (Count)
board.processor.cores.core.mmu.itb.readAccesses            0                       # read accesses (Count)
board.processor.cores.core.mmu.itb.writeHits            0                       # write hits (Count)
board.processor.cores.core.mmu.itb.writeMisses            0                       # write misses (Count)
board.processor.cores.core.mmu.itb.writeAccesses            0                       # write accesses (Count)
board.processor.cores.core.mmu.itb.hits             0                       # Total TLB (read and write) hits (Count)
board.processor.cores.core.mmu.itb.misses            0                       # Total TLB (read and write) misses (Count)
board.processor.cores.core.mmu.itb.accesses            0                       # Total TLB (read and write) accesses (Count)
board.processor.cores.core.mmu.itb.walker.num_4kb_walks            0                       # Completed page walks with 4KB pages (Count)
board.processor.cores.core.mmu.itb.walker.num_2mb_walks            0                       # Completed page walks with 2MB pages (Count)
board.processor.cores.core.mmu.itb.walker.power_state.pwrStateResidencyTicks::UNDEFINED     31684821                       # Cumulative time (in ticks) in various power states (Tick)
board.processor.cores.core.power_state.pwrStateResidencyTicks::ON     31684821                       # Cumulative time (in ticks) in various power states (Tick)
board.processor.cores.core.thread_0.numInsts         6792                       # Number of Instructions committed (Count)
board.processor.cores.core.thread_0.numOps         6801                       # Number of Ops committed (Count)
board.processor.cores.core.thread_0.numMemRefs            0                       # Number of Memory References (Count)
board.processor.cores.core.workload.numSyscalls            9                       # Number of system calls (Count)
board.workload.inst.arm                             0                       # number of arm instructions executed (Count)
board.workload.inst.quiesce                         0                       # number of quiesce instructions executed (Count)
board.processor.cores.core.idleCycles               0                       # Total number of cycles that the object has spent stopped (Unspecified)
board.processor.cores.core.tickCycles           38037                       # Number of cycles that the object actually ticked (Unspecified)

---------- End Simulation Statistics   ----------
