---------- Begin Simulation Statistics ----------
simSeconds                                   0.000073                       # Number of seconds simulated (Second)
simTicks                                     73363000                       # Number of ticks simulated (Tick)
finalTick                                    73363000                       # Number of ticks from beginning of simulation (restored from checkpoints and never reset) (Tick)
simFreq                                  1000000000000                       # The number of ticks per simulated second ((Tick/Second))
hostSeconds                                      0.06                       # Real time elapsed on the host (Second)
hostTickRate                               1307601818                       # The number of ticks simulated per host second (ticks/s) ((Tick/Second))
hostMemory                                    2242372                       # Number of bytes of host memory used (Byte)
simInsts                                        25342                       # Number of instructions simulated (Count)
simOps                                          25350                       # Number of ops (including micro ops) simulated (Count)
hostInstRate                                   450412                       # Simulator instruction rate (inst/s) ((Count/Second))
hostOpRate                                     450490                       # Simulator op (including micro ops) rate (op/s) ((Count/Second))
board.cache_hierarchy.l1d-cache-0.demandHits::processor.cores.core.data        10265                       # number of demand (read+write) hits (Count)
board.cache_hierarchy.l1d-cache-0.demandHits::total        10265                       # number of demand (read+write) hits (Count)
board.cache_hierarchy.l1d-cache-0.overallHits::processor.cores.core.data        10265                       # number of overall hits (Count)
board.cache_hierarchy.l1d-cache-0.overallHits::total        10265                       # number of overall hits (Count)
board.cache_hierarchy.l1d-cache-0.demandMisses::processor.cores.core.data          190                       # number of demand (read+write) misses (Count)
board.cache_hierarchy.l1d-cache-0.demandMisses::total          190                       # number of demand (read+write) misses (Count)
board.cache_hierarchy.l1d-cache-0.overallMisses::processor.cores.core.data          190                       # number of overall misses (Count)
board.cache_hierarchy.l1d-cache-0.overallMisses::total          190                       # number of overall misses (Count)
board.cache_hierarchy.l1d-cache-0.demandMissLatency::processor.cores.core.data     13435000                       # number of demand (read+write) miss ticks (Tick)
board.cache_hierarchy.l1d-cache-0.demandMissLatency::total     13435000                       # number of demand (read+write) miss ticks (Tick)
board.cache_hierarchy.l1d-cache-0.overallMissLatency::processor.cores.core.data     13435000                       # number of overall miss ticks (Tick)
board.cache_hierarchy.l1d-cache-0.overallMissLatency::total     13435000                       # number of overall miss ticks (Tick)
board.cache_hierarchy.l1d-cache-0.demandAccesses::processor.cores.core.data        10455                       # number of demand (read+write) accesses (Count)
board.cache_hierarchy.l1d-cache-0.demandAccesses::total        10455                       # number of demand (read+write) accesses (Count)
board.cache_hierarchy.l1d-cache-0.overallAccesses::processor.cores.core.data        10455                       # number of overall (read+write) accesses (Count)
board.cache_hierarchy.l1d-cache-0.overallAccesses::total        10455                       # number of overall (read+write) accesses (Count)
board.cache_hierarchy.l1d-cache-0.demandMissRate::processor.cores.core.data     0.018173                       # miss rate for demand accesses (Ratio)
board.cache_hierarchy.l1d-cache-0.demandMissRate::total     0.018173                       # miss rate for demand accesses (Ratio)
board.cache_hierarchy.l1d-cache-0.overallMissRate::processor.cores.core.data     0.018173                       # miss rate for overall accesses (Ratio)
board.cache_hierarchy.l1d-cache-0.overallMissRate::total     0.018173                       # miss rate for overall accesses (Ratio)
board.cache_hierarchy.l1d-cache-0.demandAvgMissLatency::processor.cores.core.data 70710.526316                       # average overall miss latency in ticks ((Tick/Count))
board.cache_hierarchy.l1d-cache-0.demandAvgMissLatency::total 70710.526316                       # average overall miss latency in ticks ((Tick/Count))
board.cache_hierarchy.l1d-cache-0.overallAvgMissLatency::processor.cores.core.data 70710.526316                       # average overall miss latency ((Tick/Count))
board.cache_hierarchy.l1d-cache-0.overallAvgMissLatency::total 70710.526316                       # average overall miss latency ((Tick/Count))
board.cache_hierarchy.l1d-cache-0.blockedCycles::no_mshrs            0                       # number of cycles access was blocked (Cycle)
board.cache_hierarchy.l1d-cache-0.blockedCycles::no_targets            0                       # number of cycles access was blocked (Cycle)
board.cache_hierarchy.l1d-cache-0.blockedCauses::no_mshrs            0                       # number of times access was blocked (Count)
board.cache_hierarchy.l1d-cache-0.blockedCauses::no_targets            0                       # number of times access was blocked (Count)
board.cache_hierarchy.l1d-cache-0.avgBlocked::no_mshrs          nan                       # average number of cycles each access was blocked ((Cycle/Count))
board.cache_hierarchy.l1d-cache-0.avgBlocked::no_targets          nan                       # average number of cycles each access was blocked ((Cycle/Count))
board.cache_hierarchy.l1d-cache-0.writebacks::writebacks           13                       # number of writebacks (Count)
board.cache_hierarchy.l1d-cache-0.writebacks::total           13                       # number of writebacks (Count)
board.cache_hierarchy.l1d-cache-0.demandMshrMisses::processor.cores.core.data          190                       # number of demand (read+write) MSHR misses (Count)
board.cache_hierarchy.l1d-cache-0.demandMshrMisses::total          190                       # number of demand (read+write) MSHR misses (Count)
board.cache_hierarchy.l1d-cache-0.overallMshrMisses::cache_hierarchy.l1d-cache-0.prefetcher           47                       # number of overall MSHR misses (Count)
board.cache_hierarchy.l1d-cache-0.overallMshrMisses::processor.cores.core.data          190                       # number of overall MSHR misses (Count)
board.cache_hierarchy.l1d-cache-0.overallMshrMisses::total          237                       # number of overall MSHR misses (Count)
board.cache_hierarchy.l1d-cache-0.demandMshrMissLatency::processor.cores.core.data     13245000                       # number of demand (read+write) MSHR miss ticks (Tick)
board.cache_hierarchy.l1d-cache-0.demandMshrMissLatency::total     13245000                       # number of demand (read+write) MSHR miss ticks (Tick)
board.cache_hierarchy.l1d-cache-0.overallMshrMissLatency::cache_hierarchy.l1d-cache-0.prefetcher      1338885                       # number of overall MSHR miss ticks (Tick)
board.cache_hierarchy.l1d-cache-0.overallMshrMissLatency::processor.cores.core.data     13245000                       # number of overall MSHR miss ticks (Tick)
board.cache_hierarchy.l1d-cache-0.overallMshrMissLatency::total     14583885                       # number of overall MSHR miss ticks (Tick)
board.cache_hierarchy.l1d-cache-0.demandMshrMissRate::processor.cores.core.data     0.018173                       # mshr miss ratio for demand accesses (Ratio)
board.cache_hierarchy.l1d-cache-0.demandMshrMissRate::total     0.018173                       # mshr miss ratio for demand accesses (Ratio)
board.cache_hierarchy.l1d-cache-0.overallMshrMissRate::cache_hierarchy.l1d-cache-0.prefetcher          inf                       # mshr miss ratio for overall accesses (Ratio)
board.cache_hierarchy.l1d-cache-0.overallMshrMissRate::processor.cores.core.data     0.018173                       # mshr miss ratio for overall accesses (Ratio)
board.cache_hierarchy.l1d-cache-0.overallMshrMissRate::total     0.022669                       # mshr miss ratio for overall accesses (Ratio)
board.cache_hierarchy.l1d-cache-0.demandAvgMshrMissLatency::processor.cores.core.data 69710.526316                       # average overall mshr miss latency ((Tick/Count))
board.cache_hierarchy.l1d-cache-0.demandAvgMshrMissLatency::total 69710.526316                       # average overall mshr miss latency ((Tick/Count))
board.cache_hierarchy.l1d-cache-0.overallAvgMshrMissLatency::cache_hierarchy.l1d-cache-0.prefetcher 28486.914894                       # average overall mshr miss latency ((Tick/Count))
board.cache_hierarchy.l1d-cache-0.overallAvgMshrMissLatency::processor.cores.core.data 69710.526316                       # average overall mshr miss latency ((Tick/Count))
board.cache_hierarchy.l1d-cache-0.overallAvgMshrMissLatency::total 61535.379747                       # average overall mshr miss latency ((Tick/Count))
board.cache_hierarchy.l1d-cache-0.replacements           19                       # number of replacements (Count)
board.cache_hierarchy.l1d-cache-0.HardPFReq.mshrMisses::cache_hierarchy.l1d-cache-0.prefetcher           47                       # number of HardPFReq MSHR misses (Count)
board.cache_hierarchy.l1d-cache-0.HardPFReq.mshrMisses::total           47                       # number of HardPFReq MSHR misses (Count)
board.cache_hierarchy.l1d-cache-0.HardPFReq.mshrMissLatency::cache_hierarchy.l1d-cache-0.prefetcher      1338885                       # number of HardPFReq MSHR miss ticks (Tick)
board.cache_hierarchy.l1d-cache-0.HardPFReq.mshrMissLatency::total      1338885                       # number of HardPFReq MSHR miss ticks (Tick)
board.cache_hierarchy.l1d-cache-0.HardPFReq.mshrMissRate::cache_hierarchy.l1d-cache-0.prefetcher          inf                       # mshr miss rate for HardPFReq accesses (Ratio)
board.cache_hierarchy.l1d-cache-0.HardPFReq.mshrMissRate::total          inf                       # mshr miss rate for HardPFReq accesses (Ratio)
board.cache_hierarchy.l1d-cache-0.HardPFReq.avgMshrMissLatency::cache_hierarchy.l1d-cache-0.prefetcher 28486.914894                       # average HardPFReq mshr miss latency ((Tick/Count))
board.cache_hierarchy.l1d-cache-0.HardPFReq.avgMshrMissLatency::total 28486.914894                       # average HardPFReq mshr miss latency ((Tick/Count))
board.cache_hierarchy.l1d-cache-0.LoadLockedReq.hits::processor.cores.core.data            6                       # number of LoadLockedReq hits (Count)
board.cache_hierarchy.l1d-cache-0.LoadLockedReq.hits::total            6                       # number of LoadLockedReq hits (Count)
board.cache_hierarchy.l1d-cache-0.LoadLockedReq.misses::processor.cores.core.data            2                       # number of LoadLockedReq misses (Count)
board.cache_hierarchy.l1d-cache-0.LoadLockedReq.misses::total            2                       # number of LoadLockedReq misses (Count)
board.cache_hierarchy.l1d-cache-0.LoadLockedReq.missLatency::processor.cores.core.data       156000                       # number of LoadLockedReq miss ticks (Tick)
board.cache_hierarchy.l1d-cache-0.LoadLockedReq.missLatency::total       156000                       # number of LoadLockedReq miss ticks (Tick)
board.cache_hierarchy.l1d-cache-0.LoadLockedReq.accesses::processor.cores.core.data            8                       # number of LoadLockedReq accesses(hits+misses) (Count)
board.cache_hierarchy.l1d-cache-0.LoadLockedReq.accesses::total            8                       # number of LoadLockedReq accesses(hits+misses) (Count)
board.cache_hierarchy.l1d-cache-0.LoadLockedReq.missRate::processor.cores.core.data     0.250000                       # miss rate for LoadLockedReq accesses (Ratio)
board.cache_hierarchy.l1d-cache-0.LoadLockedReq.missRate::total     0.250000                       # miss rate for LoadLockedReq accesses (Ratio)
board.cache_hierarchy.l1d-cache-0.LoadLockedReq.avgMissLatency::processor.cores.core.data        78000                       # average LoadLockedReq miss latency ((Tick/Count))
board.cache_hierarchy.l1d-cache-0.LoadLockedReq.avgMissLatency::total        78000                       # average LoadLockedReq miss latency ((Tick/Count))
board.cache_hierarchy.l1d-cache-0.LoadLockedReq.mshrMisses::processor.cores.core.data            2                       # number of LoadLockedReq MSHR misses (Count)
board.cache_hierarchy.l1d-cache-0.LoadLockedReq.mshrMisses::total            2                       # number of LoadLockedReq MSHR misses (Count)
board.cache_hierarchy.l1d-cache-0.LoadLockedReq.mshrMissLatency::processor.cores.core.data       154000                       # number of LoadLockedReq MSHR miss ticks (Tick)
board.cache_hierarchy.l1d-cache-0.LoadLockedReq.mshrMissLatency::total       154000                       # number of LoadLockedReq MSHR miss ticks (Tick)
board.cache_hierarchy.l1d-cache-0.LoadLockedReq.mshrMissRate::processor.cores.core.data     0.250000                       # mshr miss rate for LoadLockedReq accesses (Ratio)
board.cache_hierarchy.l1d-cache-0.LoadLockedReq.mshrMissRate::total     0.250000                       # mshr miss rate for LoadLockedReq accesses (Ratio)
board.cache_hierarchy.l1d-cache-0.LoadLockedReq.avgMshrMissLatency::processor.cores.core.data        77000                       # average LoadLockedReq mshr miss latency ((Tick/Count))
board.cache_hierarchy.l1d-cache-0.LoadLockedReq.avgMshrMissLatency::total        77000                       # average LoadLockedReq mshr miss latency ((Tick/Count))
board.cache_hierarchy.l1d-cache-0.ReadReq.hits::processor.cores.core.data         5210                       # number of ReadReq hits (Count)
board.cache_hierarchy.l1d-cache-0.ReadReq.hits::total         5210                       # number of ReadReq hits (Count)
board.cache_hierarchy.l1d-cache-0.ReadReq.misses::processor.cores.core.data          102                       # number of ReadReq misses (Count)
board.cache_hierarchy.l1d-cache-0.ReadReq.misses::total          102                       # number of ReadReq misses (Count)
board.cache_hierarchy.l1d-cache-0.ReadReq.missLatency::processor.cores.core.data      7127000                       # number of ReadReq miss ticks (Tick)
board.cache_hierarchy.l1d-cache-0.ReadReq.missLatency::total      7127000                       # number of ReadReq miss ticks (Tick)
board.cache_hierarchy.l1d-cache-0.ReadReq.accesses::processor.cores.core.data         5312                       # number of ReadReq accesses(hits+misses) (Count)
board.cache_hierarchy.l1d-cache-0.ReadReq.accesses::total         5312                       # number of ReadReq accesses(hits+misses) (Count)
board.cache_hierarchy.l1d-cache-0.ReadReq.missRate::processor.cores.core.data     0.019202                       # miss rate for ReadReq accesses (Ratio)
board.cache_hierarchy.l1d-cache-0.ReadReq.missRate::total     0.019202                       # miss rate for ReadReq accesses (Ratio)
board.cache_hierarchy.l1d-cache-0.ReadReq.avgMissLatency::processor.cores.core.data 69872.549020                       # average ReadReq miss latency ((Tick/Count))
board.cache_hierarchy.l1d-cache-0.ReadReq.avgMissLatency::total 69872.549020                       # average ReadReq miss latency ((Tick/Count))
board.cache_hierarchy.l1d-cache-0.ReadReq.mshrMisses::processor.cores.core.data          102                       # number of ReadReq MSHR misses (Count)
board.cache_hierarchy.l1d-cache-0.ReadReq.mshrMisses::total          102                       # number of ReadReq MSHR misses (Count)
board.cache_hierarchy.l1d-cache-0.ReadReq.mshrMissLatency::processor.cores.core.data      7025000                       # number of ReadReq MSHR miss ticks (Tick)
board.cache_hierarchy.l1d-cache-0.ReadReq.mshrMissLatency::total      7025000                       # number of ReadReq MSHR miss ticks (Tick)
board.cache_hierarchy.l1d-cache-0.ReadReq.mshrMissRate::processor.cores.core.data     0.019202                       # mshr miss rate for ReadReq accesses (Ratio)
board.cache_hierarchy.l1d-cache-0.ReadReq.mshrMissRate::total     0.019202                       # mshr miss rate for ReadReq accesses (Ratio)
board.cache_hierarchy.l1d-cache-0.ReadReq.avgMshrMissLatency::processor.cores.core.data 68872.549020                       # average ReadReq mshr miss latency ((Tick/Count))
board.cache_hierarchy.l1d-cache-0.ReadReq.avgMshrMissLatency::total 68872.549020                       # average ReadReq mshr miss latency ((Tick/Count))
board.cache_hierarchy.l1d-cache-0.StoreCondReq.hits::processor.cores.core.data            8                       # number of StoreCondReq hits (Count)
board.cache_hierarchy.l1d-cache-0.StoreCondReq.hits::total            8                       # number of StoreCondReq hits (Count)
board.cache_hierarchy.l1d-cache-0.StoreCondReq.accesses::processor.cores.core.data            8                       # number of StoreCondReq accesses(hits+misses) (Count)
board.cache_hierarchy.l1d-cache-0.StoreCondReq.accesses::total            8                       # number of StoreCondReq accesses(hits+misses) (Count)
board.cache_hierarchy.l1d-cache-0.SwapReq.hits::processor.cores.core.data           18                       # number of SwapReq hits (Count)
board.cache_hierarchy.l1d-cache-0.SwapReq.hits::total           18                       # number of SwapReq hits (Count)
board.cache_hierarchy.l1d-cache-0.SwapReq.misses::processor.cores.core.data            1                       # number of SwapReq misses (Count)
board.cache_hierarchy.l1d-cache-0.SwapReq.misses::total            1                       # number of SwapReq misses (Count)
board.cache_hierarchy.l1d-cache-0.SwapReq.missLatency::processor.cores.core.data        64000                       # number of SwapReq miss ticks (Tick)
board.cache_hierarchy.l1d-cache-0.SwapReq.missLatency::total        64000                       # number of SwapReq miss ticks (Tick)
board.cache_hierarchy.l1d-cache-0.SwapReq.accesses::processor.cores.core.data           19                       # number of SwapReq accesses(hits+misses) (Count)
board.cache_hierarchy.l1d-cache-0.SwapReq.accesses::total           19                       # number of SwapReq accesses(hits+misses) (Count)
board.cache_hierarchy.l1d-cache-0.SwapReq.missRate::processor.cores.core.data     0.052632                       # miss rate for SwapReq accesses (Ratio)
board.cache_hierarchy.l1d-cache-0.SwapReq.missRate::total     0.052632                       # miss rate for SwapReq accesses (Ratio)
board.cache_hierarchy.l1d-cache-0.SwapReq.avgMissLatency::processor.cores.core.data        64000                       # average SwapReq miss latency ((Tick/Count))
board.cache_hierarchy.l1d-cache-0.SwapReq.avgMissLatency::total        64000                       # average SwapReq miss latency ((Tick/Count))
board.cache_hierarchy.l1d-cache-0.SwapReq.mshrMisses::processor.cores.core.data            1                       # number of SwapReq MSHR misses (Count)
board.cache_hierarchy.l1d-cache-0.SwapReq.mshrMisses::total            1                       # number of SwapReq MSHR misses (Count)
board.cache_hierarchy.l1d-cache-0.SwapReq.mshrMissLatency::processor.cores.core.data        63000                       # number of SwapReq MSHR miss ticks (Tick)
board.cache_hierarchy.l1d-cache-0.SwapReq.mshrMissLatency::total        63000                       # number of SwapReq MSHR miss ticks (Tick)
board.cache_hierarchy.l1d-cache-0.SwapReq.mshrMissRate::processor.cores.core.data     0.052632                       # mshr miss rate for SwapReq accesses (Ratio)
board.cache_hierarchy.l1d-cache-0.SwapReq.mshrMissRate::total     0.052632                       # mshr miss rate for SwapReq accesses (Ratio)
board.cache_hierarchy.l1d-cache-0.SwapReq.avgMshrMissLatency::processor.cores.core.data        63000                       # average SwapReq mshr miss latency ((Tick/Count))
board.cache_hierarchy.l1d-cache-0.SwapReq.avgMshrMissLatency::total        63000                       # average SwapReq mshr miss latency ((Tick/Count))
board.cache_hierarchy.l1d-cache-0.WriteReq.hits::processor.cores.core.data         5055                       # number of WriteReq hits (Count)
board.cache_hierarchy.l1d-cache-0.WriteReq.hits::total         5055                       # number of WriteReq hits (Count)
board.cache_hierarchy.l1d-cache-0.WriteReq.misses::processor.cores.core.data           88                       # number of WriteReq misses (Count)
board.cache_hierarchy.l1d-cache-0.WriteReq.misses::total           88                       # number of WriteReq misses (Count)
board.cache_hierarchy.l1d-cache-0.WriteReq.missLatency::processor.cores.core.data      6308000                       # number of WriteReq miss ticks (Tick)
board.cache_hierarchy.l1d-cache-0.WriteReq.missLatency::total      6308000                       # number of WriteReq miss ticks (Tick)
board.cache_hierarchy.l1d-cache-0.WriteReq.accesses::processor.cores.core.data         5143                       # number of WriteReq accesses(hits+misses) (Count)
board.cache_hierarchy.l1d-cache-0.WriteReq.accesses::total         5143                       # number of WriteReq accesses(hits+misses) (Count)
board.cache_hierarchy.l1d-cache-0.WriteReq.missRate::processor.cores.core.data     0.017111                       # miss rate for WriteReq accesses (Ratio)
board.cache_hierarchy.l1d-cache-0.WriteReq.missRate::total     0.017111                       # miss rate for WriteReq accesses (Ratio)
board.cache_hierarchy.l1d-cache-0.WriteReq.avgMissLatency::processor.cores.core.data 71681.818182                       # average WriteReq miss latency ((Tick/Count))
board.cache_hierarchy.l1d-cache-0.WriteReq.avgMissLatency::total 71681.818182                       # average WriteReq miss latency ((Tick/Count))
board.cache_hierarchy.l1d-cache-0.WriteReq.mshrMisses::processor.cores.core.data           88                       # number of WriteReq MSHR misses (Count)
board.cache_hierarchy.l1d-cache-0.WriteReq.mshrMisses::total           88                       # number of WriteReq MSHR misses (Count)
board.cache_hierarchy.l1d-cache-0.WriteReq.mshrMissLatency::processor.cores.core.data      6220000                       # number of WriteReq MSHR miss ticks (Tick)
board.cache_hierarchy.l1d-cache-0.WriteReq.mshrMissLatency::total      6220000                       # number of WriteReq MSHR miss ticks (Tick)
board.cache_hierarchy.l1d-cache-0.WriteReq.mshrMissRate::processor.cores.core.data     0.017111                       # mshr miss rate for WriteReq accesses (Ratio)
board.cache_hierarchy.l1d-cache-0.WriteReq.mshrMissRate::total     0.017111                       # mshr miss rate for WriteReq accesses (Ratio)
board.cache_hierarchy.l1d-cache-0.WriteReq.avgMshrMissLatency::processor.cores.core.data 70681.818182                       # average WriteReq mshr miss latency ((Tick/Count))
board.cache_hierarchy.l1d-cache-0.WriteReq.avgMshrMissLatency::total 70681.818182                       # average WriteReq mshr miss latency ((Tick/Count))
board.cache_hierarchy.l1d-cache-0.power_state.pwrStateResidencyTicks::UNDEFINED     73363000                       # Cumulative time (in ticks) in various power states (Tick)
board.cache_hierarchy.l1d-cache-0.prefetcher.demandMshrMisses          190                       # demands not covered by prefetchs (Count)
board.cache_hierarchy.l1d-cache-0.prefetcher.pfIssued          168                       # number of hwpf issued (Count)
board.cache_hierarchy.l1d-cache-0.prefetcher.pfUseful           43                       # number of useful prefetch (Count)
board.cache_hierarchy.l1d-cache-0.prefetcher.pfUsefulButMiss            0                       # number of hit on prefetch but cache block is not in an usable state (Count)
board.cache_hierarchy.l1d-cache-0.prefetcher.accuracy     0.255952                       # accuracy of the prefetcher (Count)
board.cache_hierarchy.l1d-cache-0.prefetcher.coverage     0.184549                       # coverage brought by this prefetcher (Count)
board.cache_hierarchy.l1d-cache-0.prefetcher.pfHitInCache          121                       # number of prefetches hitting in cache (Count)
board.cache_hierarchy.l1d-cache-0.prefetcher.pfHitInMSHR            0                       # number of prefetches hitting in a MSHR (Count)
board.cache_hierarchy.l1d-cache-0.prefetcher.pfHitInWB            0                       # number of prefetches hit in the Write Buffer (Count)
board.cache_hierarchy.l1d-cache-0.prefetcher.pfLate          121                       # number of late prefetches (hitting in cache, MSHR or WB) (Count)
board.cache_hierarchy.l1d-cache-0.prefetcher.pfIdentified          168                       # number of prefetch candidates identified (Count)
board.cache_hierarchy.l1d-cache-0.prefetcher.pfBufferHit            0                       # number of redundant prefetches already in prefetch queue (Count)
board.cache_hierarchy.l1d-cache-0.prefetcher.pfInCache            0                       # number of redundant prefetches already in cache/mshr dropped (Count)
board.cache_hierarchy.l1d-cache-0.prefetcher.pfRemovedDemand            0                       # number of prefetches dropped due to a demand for the same address (Count)
board.cache_hierarchy.l1d-cache-0.prefetcher.pfRemovedFull            0                       # number of prefetches dropped due to prefetch queue size (Count)
board.cache_hierarchy.l1d-cache-0.prefetcher.pfSpanPage            0                       # number of prefetches that crossed the page (Count)
board.cache_hierarchy.l1d-cache-0.prefetcher.pfUsefulSpanPage            0                       # number of prefetches that is useful and crossed the page (Count)
board.cache_hierarchy.l1d-cache-0.prefetcher.power_state.pwrStateResidencyTicks::UNDEFINED     73363000                       # Cumulative time (in ticks) in various power states (Tick)
board.cache_hierarchy.l1d-cache-0.tags.tagsInUse   163.345652                       # Average ticks per tags in use ((Tick/Count))
board.cache_hierarchy.l1d-cache-0.tags.totalRefs        10537                       # Total number of references to valid blocks. (Count)
board.cache_hierarchy.l1d-cache-0.tags.sampledRefs          240                       # Sample count of references to valid blocks. (Count)
board.cache_hierarchy.l1d-cache-0.tags.avgRefs    43.904167                       # Average number of references to valid blocks. ((Count/Count))
board.cache_hierarchy.l1d-cache-0.tags.warmupTick       170000                       # The tick when the warmup percentage was hit. (Tick)
board.cache_hierarchy.l1d-cache-0.tags.occupancies::cache_hierarchy.l1d-cache-0.prefetcher    37.633603                       # Average occupied blocks per tick, per requestor ((Count/Tick))
board.cache_hierarchy.l1d-cache-0.tags.occupancies::processor.cores.core.data   125.712049                       # Average occupied blocks per tick, per requestor ((Count/Tick))
board.cache_hierarchy.l1d-cache-0.tags.avgOccs::cache_hierarchy.l1d-cache-0.prefetcher     0.147006                       # Average percentage of cache occupancy ((Ratio/Tick))
board.cache_hierarchy.l1d-cache-0.tags.avgOccs::processor.cores.core.data     0.491063                       # Average percentage of cache occupancy ((Ratio/Tick))
board.cache_hierarchy.l1d-cache-0.tags.avgOccs::total     0.638069                       # Average percentage of cache occupancy ((Ratio/Tick))
board.cache_hierarchy.l1d-cache-0.tags.occupanciesTaskId::1022           42                       # Occupied blocks per task id (Count)
board.cache_hierarchy.l1d-cache-0.tags.occupanciesTaskId::1024          179                       # Occupied blocks per task id (Count)
board.cache_hierarchy.l1d-cache-0.tags.ageTaskId_1022::1           42                       # Occupied blocks per task id, per block age (Count)
board.cache_hierarchy.l1d-cache-0.tags.ageTaskId_1024::0           25                       # Occupied blocks per task id, per block age (Count)
board.cache_hierarchy.l1d-cache-0.tags.ageTaskId_1024::1          154                       # Occupied blocks per task id, per block age (Count)
board.cache_hierarchy.l1d-cache-0.tags.ratioOccsTaskId::1022     0.164062                       # Ratio of occupied blocks and all blocks, per task id (Ratio)
board.cache_hierarchy.l1d-cache-0.tags.ratioOccsTaskId::1024     0.699219                       # Ratio of occupied blocks and all blocks, per task id (Ratio)
board.cache_hierarchy.l1d-cache-0.tags.tagAccesses        84160                       # Number of tag accesses (Count)
board.cache_hierarchy.l1d-cache-0.tags.dataAccesses        84160                       # Number of data accesses (Count)
board.cache_hierarchy.l1d-cache-0.tags.power_state.pwrStateResidencyTicks::UNDEFINED     73363000                       # Cumulative time (in ticks) in various power states (Tick)
board.cache_hierarchy.l1i-cache-0.demandHits::processor.cores.core.inst        28426                       # number of demand (read+write) hits (Count)
board.cache_hierarchy.l1i-cache-0.demandHits::total        28426                       # number of demand (read+write) hits (Count)
board.cache_hierarchy.l1i-cache-0.overallHits::processor.cores.core.inst        28426                       # number of overall hits (Count)
board.cache_hierarchy.l1i-cache-0.overallHits::total        28426                       # number of overall hits (Count)
board.cache_hierarchy.l1i-cache-0.demandMisses::processor.cores.core.inst          287                       # number of demand (read+write) misses (Count)
board.cache_hierarchy.l1i-cache-0.demandMisses::total          287                       # number of demand (read+write) misses (Count)
board.cache_hierarchy.l1i-cache-0.overallMisses::processor.cores.core.inst          287                       # number of overall misses (Count)
board.cache_hierarchy.l1i-cache-0.overallMisses::total          287                       # number of overall misses (Count)
board.cache_hierarchy.l1i-cache-0.demandMissLatency::processor.cores.core.inst     20629000                       # number of demand (read+write) miss ticks (Tick)
board.cache_hierarchy.l1i-cache-0.demandMissLatency::total     20629000                       # number of demand (read+write) miss ticks (Tick)
board.cache_hierarchy.l1i-cache-0.overallMissLatency::processor.cores.core.inst     20629000                       # number of overall miss ticks (Tick)
board.cache_hierarchy.l1i-cache-0.overallMissLatency::total     20629000                       # number of overall miss ticks (Tick)
board.cache_hierarchy.l1i-cache-0.demandAccesses::processor.cores.core.inst        28713                       # number of demand (read+write) accesses (Count)
board.cache_hierarchy.l1i-cache-0.demandAccesses::total        28713                       # number of demand (read+write) accesses (Count)
board.cache_hierarchy.l1i-cache-0.overallAccesses::processor.cores.core.inst        28713                       # number of overall (read+write) accesses (Count)
board.cache_hierarchy.l1i-cache-0.overallAccesses::total        28713                       # number of overall (read+write) accesses (Count)
board.cache_hierarchy.l1i-cache-0.demandMissRate::processor.cores.core.inst     0.009995                       # miss rate for demand accesses (Ratio)
board.cache_hierarchy.l1i-cache-0.demandMissRate::total     0.009995                       # miss rate for demand accesses (Ratio)
board.cache_hierarchy.l1i-cache-0.overallMissRate::processor.cores.core.inst     0.009995                       # miss rate for overall accesses (Ratio)
board.cache_hierarchy.l1i-cache-0.overallMissRate::total     0.009995                       # miss rate for overall accesses (Ratio)
board.cache_hierarchy.l1i-cache-0.demandAvgMissLatency::processor.cores.core.inst 71878.048780                       # average overall miss latency in ticks ((Tick/Count))
board.cache_hierarchy.l1i-cache-0.demandAvgMissLatency::total 71878.048780                       # average overall miss latency in ticks ((Tick/Count))
board.cache_hierarchy.l1i-cache-0.overallAvgMissLatency::processor.cores.core.inst 71878.048780                       # average overall miss latency ((Tick/Count))
board.cache_hierarchy.l1i-cache-0.overallAvgMissLatency::total 71878.048780                       # average overall miss latency ((Tick/Count))
board.cache_hierarchy.l1i-cache-0.blockedCycles::no_mshrs            0                       # number of cycles access was blocked (Cycle)
board.cache_hierarchy.l1i-cache-0.blockedCycles::no_targets            0                       # number of cycles access was blocked (Cycle)
board.cache_hierarchy.l1i-cache-0.blockedCauses::no_mshrs            0                       # number of times access was blocked (Count)
board.cache_hierarchy.l1i-cache-0.blockedCauses::no_targets            0                       # number of times access was blocked (Count)
board.cache_hierarchy.l1i-cache-0.avgBlocked::no_mshrs          nan                       # average number of cycles each access was blocked ((Cycle/Count))
board.cache_hierarchy.l1i-cache-0.avgBlocked::no_targets          nan                       # average number of cycles each access was blocked ((Cycle/Count))
board.cache_hierarchy.l1i-cache-0.writebacks::writebacks           43                       # number of writebacks (Count)
board.cache_hierarchy.l1i-cache-0.writebacks::total           43                       # number of writebacks (Count)
board.cache_hierarchy.l1i-cache-0.demandMshrMisses::processor.cores.core.inst          287                       # number of demand (read+write) MSHR misses (Count)
board.cache_hierarchy.l1i-cache-0.demandMshrMisses::total          287                       # number of demand (read+write) MSHR misses (Count)
board.cache_hierarchy.l1i-cache-0.overallMshrMisses::processor.cores.core.inst          287                       # number of overall MSHR misses (Count)
board.cache_hierarchy.l1i-cache-0.overallMshrMisses::total          287                       # number of overall MSHR misses (Count)
board.cache_hierarchy.l1i-cache-0.demandMshrMissLatency::processor.cores.core.inst     20342000                       # number of demand (read+write) MSHR miss ticks (Tick)
board.cache_hierarchy.l1i-cache-0.demandMshrMissLatency::total     20342000                       # number of demand (read+write) MSHR miss ticks (Tick)
board.cache_hierarchy.l1i-cache-0.overallMshrMissLatency::processor.cores.core.inst     20342000                       # number of overall MSHR miss ticks (Tick)
board.cache_hierarchy.l1i-cache-0.overallMshrMissLatency::total     20342000                       # number of overall MSHR miss ticks (Tick)
board.cache_hierarchy.l1i-cache-0.demandMshrMissRate::processor.cores.core.inst     0.009995                       # mshr miss ratio for demand accesses (Ratio)
board.cache_hierarchy.l1i-cache-0.demandMshrMissRate::total     0.009995                       # mshr miss ratio for demand accesses (Ratio)
board.cache_hierarchy.l1i-cache-0.overallMshrMissRate::processor.cores.core.inst     0.009995                       # mshr miss ratio for overall accesses (Ratio)
board.cache_hierarchy.l1i-cache-0.overallMshrMissRate::total     0.009995                       # mshr miss ratio for overall accesses (Ratio)
board.cache_hierarchy.l1i-cache-0.demandAvgMshrMissLatency::processor.cores.core.inst 70878.048780                       # average overall mshr miss latency ((Tick/Count))
board.cache_hierarchy.l1i-cache-0.demandAvgMshrMissLatency::total 70878.048780                       # average overall mshr miss latency ((Tick/Count))
board.cache_hierarchy.l1i-cache-0.overallAvgMshrMissLatency::processor.cores.core.inst 70878.048780                       # average overall mshr miss latency ((Tick/Count))
board.cache_hierarchy.l1i-cache-0.overallAvgMshrMissLatency::total 70878.048780                       # average overall mshr miss latency ((Tick/Count))
board.cache_hierarchy.l1i-cache-0.replacements           43                       # number of replacements (Count)
board.cache_hierarchy.l1i-cache-0.ReadReq.hits::processor.cores.core.inst        28426                       # number of ReadReq hits (Count)
board.cache_hierarchy.l1i-cache-0.ReadReq.hits::total        28426                       # number of ReadReq hits (Count)
board.cache_hierarchy.l1i-cache-0.ReadReq.misses::processor.cores.core.inst          287                       # number of ReadReq misses (Count)
board.cache_hierarchy.l1i-cache-0.ReadReq.misses::total          287                       # number of ReadReq misses (Count)
board.cache_hierarchy.l1i-cache-0.ReadReq.missLatency::processor.cores.core.inst     20629000                       # number of ReadReq miss ticks (Tick)
board.cache_hierarchy.l1i-cache-0.ReadReq.missLatency::total     20629000                       # number of ReadReq miss ticks (Tick)
board.cache_hierarchy.l1i-cache-0.ReadReq.accesses::processor.cores.core.inst        28713                       # number of ReadReq accesses(hits+misses) (Count)
board.cache_hierarchy.l1i-cache-0.ReadReq.accesses::total        28713                       # number of ReadReq accesses(hits+misses) (Count)
board.cache_hierarchy.l1i-cache-0.ReadReq.missRate::processor.cores.core.inst     0.009995                       # miss rate for ReadReq accesses (Ratio)
board.cache_hierarchy.l1i-cache-0.ReadReq.missRate::total     0.009995                       # miss rate for ReadReq accesses (Ratio)
board.cache_hierarchy.l1i-cache-0.ReadReq.avgMissLatency::processor.cores.core.inst 71878.048780                       # average ReadReq miss latency ((Tick/Count))
board.cache_hierarchy.l1i-cache-0.ReadReq.avgMissLatency::total 71878.048780                       # average ReadReq miss latency ((Tick/Count))
board.cache_hierarchy.l1i-cache-0.ReadReq.mshrMisses::processor.cores.core.inst          287                       # number of ReadReq MSHR misses (Count)
board.cache_hierarchy.l1i-cache-0.ReadReq.mshrMisses::total          287                       # number of ReadReq MSHR misses (Count)
board.cache_hierarchy.l1i-cache-0.ReadReq.mshrMissLatency::processor.cores.core.inst     20342000                       # number of ReadReq MSHR miss ticks (Tick)
board.cache_hierarchy.l1i-cache-0.ReadReq.mshrMissLatency::total     20342000                       # number of ReadReq MSHR miss ticks (Tick)
board.cache_hierarchy.l1i-cache-0.ReadReq.mshrMissRate::processor.cores.core.inst     0.009995                       # mshr miss rate for ReadReq accesses (Ratio)
board.cache_hierarchy.l1i-cache-0.ReadReq.mshrMissRate::total     0.009995                       # mshr miss rate for ReadReq accesses (Ratio)
board.cache_hierarchy.l1i-cache-0.ReadReq.avgMshrMissLatency::processor.cores.core.inst 70878.048780                       # average ReadReq mshr miss latency ((Tick/Count))
board.cache_hierarchy.l1i-cache-0.ReadReq.avgMshrMissLatency::total 70878.048780                       # average ReadReq mshr miss latency ((Tick/Count))
board.cache_hierarchy.l1i-cache-0.power_state.pwrStateResidencyTicks::UNDEFINED     73363000                       # Cumulative time (in ticks) in various power states (Tick)
board.cache_hierarchy.l1i-cache-0.prefetcher.demandMshrMisses          287                       # demands not covered by prefetchs (Count)
board.cache_hierarchy.l1i-cache-0.prefetcher.pfIssued            0                       # number of hwpf issued (Count)
board.cache_hierarchy.l1i-cache-0.prefetcher.pfUseful            0                       # number of useful prefetch (Count)
board.cache_hierarchy.l1i-cache-0.prefetcher.pfUsefulButMiss            0                       # number of hit on prefetch but cache block is not in an usable state (Count)
board.cache_hierarchy.l1i-cache-0.prefetcher.accuracy          nan                       # accuracy of the prefetcher (Count)
board.cache_hierarchy.l1i-cache-0.prefetcher.coverage            0                       # coverage brought by this prefetcher (Count)
board.cache_hierarchy.l1i-cache-0.prefetcher.pfHitInCache            0                       # number of prefetches hitting in cache (Count)
board.cache_hierarchy.l1i-cache-0.prefetcher.pfHitInMSHR            0                       # number of prefetches hitting in a MSHR (Count)
board.cache_hierarchy.l1i-cache-0.prefetcher.pfHitInWB            0                       # number of prefetches hit in the Write Buffer (Count)
board.cache_hierarchy.l1i-cache-0.prefetcher.pfLate            0                       # number of late prefetches (hitting in cache, MSHR or WB) (Count)
board.cache_hierarchy.l1i-cache-0.prefetcher.pfIdentified            0                       # number of prefetch candidates identified (Count)
board.cache_hierarchy.l1i-cache-0.prefetcher.pfBufferHit            0                       # number of redundant prefetches already in prefetch queue (Count)
board.cache_hierarchy.l1i-cache-0.prefetcher.pfInCache            0                       # number of redundant prefetches already in cache/mshr dropped (Count)
board.cache_hierarchy.l1i-cache-0.prefetcher.pfRemovedDemand            0                       # number of prefetches dropped due to a demand for the same address (Count)
board.cache_hierarchy.l1i-cache-0.prefetcher.pfRemovedFull            0                       # number of prefetches dropped due to prefetch queue size (Count)
board.cache_hierarchy.l1i-cache-0.prefetcher.pfSpanPage            0                       # number of prefetches that crossed the page (Count)
board.cache_hierarchy.l1i-cache-0.prefetcher.pfUsefulSpanPage            0                       # number of prefetches that is useful and crossed the page (Count)
board.cache_hierarchy.l1i-cache-0.prefetcher.power_state.pwrStateResidencyTicks::UNDEFINED     73363000                       # Cumulative time (in ticks) in various power states (Tick)
board.cache_hierarchy.l1i-cache-0.tags.tagsInUse   152.061504                       # Average ticks per tags in use ((Tick/Count))
board.cache_hierarchy.l1i-cache-0.tags.totalRefs        28713                       # Total number of references to valid blocks. (Count)
board.cache_hierarchy.l1i-cache-0.tags.sampledRefs          287                       # Sample count of references to valid blocks. (Count)
board.cache_hierarchy.l1i-cache-0.tags.avgRefs   100.045296                       # Average number of references to valid blocks. ((Count/Count))
board.cache_hierarchy.l1i-cache-0.tags.warmupTick        79000                       # The tick when the warmup percentage was hit. (Tick)
board.cache_hierarchy.l1i-cache-0.tags.occupancies::processor.cores.core.inst   152.061504                       # Average occupied blocks per tick, per requestor ((Count/Tick))
board.cache_hierarchy.l1i-cache-0.tags.avgOccs::processor.cores.core.inst     0.593990                       # Average percentage of cache occupancy ((Ratio/Tick))
board.cache_hierarchy.l1i-cache-0.tags.avgOccs::total     0.593990                       # Average percentage of cache occupancy ((Ratio/Tick))
board.cache_hierarchy.l1i-cache-0.tags.occupanciesTaskId::1024          244                       # Occupied blocks per task id (Count)
board.cache_hierarchy.l1i-cache-0.tags.ageTaskId_1024::0           80                       # Occupied blocks per task id, per block age (Count)
board.cache_hierarchy.l1i-cache-0.tags.ageTaskId_1024::1          164                       # Occupied blocks per task id, per block age (Count)
board.cache_hierarchy.l1i-cache-0.tags.ratioOccsTaskId::1024     0.953125                       # Ratio of occupied blocks and all blocks, per task id (Ratio)
board.cache_hierarchy.l1i-cache-0.tags.tagAccesses       229991                       # Number of tag accesses (Count)
board.cache_hierarchy.l1i-cache-0.tags.dataAccesses       229991                       # Number of data accesses (Count)
board.cache_hierarchy.l1i-cache-0.tags.power_state.pwrStateResidencyTicks::UNDEFINED     73363000                       # Cumulative time (in ticks) in various power states (Tick)
board.cache_hierarchy.l2-cache-0.demandHits::cache_hierarchy.l1d-cache-0.prefetcher           34                       # number of demand (read+write) hits (Count)
board.cache_hierarchy.l2-cache-0.demandHits::processor.cores.core.data            6                       # number of demand (read+write) hits (Count)
board.cache_hierarchy.l2-cache-0.demandHits::total           40                       # number of demand (read+write) hits (Count)
board.cache_hierarchy.l2-cache-0.overallHits::cache_hierarchy.l1d-cache-0.prefetcher           34                       # number of overall hits (Count)
board.cache_hierarchy.l2-cache-0.overallHits::processor.cores.core.data            6                       # number of overall hits (Count)
board.cache_hierarchy.l2-cache-0.overallHits::total           40                       # number of overall hits (Count)
board.cache_hierarchy.l2-cache-0.demandMisses::cache_hierarchy.l1d-cache-0.prefetcher           13                       # number of demand (read+write) misses (Count)
board.cache_hierarchy.l2-cache-0.demandMisses::processor.cores.core.inst          287                       # number of demand (read+write) misses (Count)
board.cache_hierarchy.l2-cache-0.demandMisses::processor.cores.core.data          187                       # number of demand (read+write) misses (Count)
board.cache_hierarchy.l2-cache-0.demandMisses::total          487                       # number of demand (read+write) misses (Count)
board.cache_hierarchy.l2-cache-0.overallMisses::cache_hierarchy.l1d-cache-0.prefetcher           13                       # number of overall misses (Count)
board.cache_hierarchy.l2-cache-0.overallMisses::processor.cores.core.inst          287                       # number of overall misses (Count)
board.cache_hierarchy.l2-cache-0.overallMisses::processor.cores.core.data          187                       # number of overall misses (Count)
board.cache_hierarchy.l2-cache-0.overallMisses::total          487                       # number of overall misses (Count)
board.cache_hierarchy.l2-cache-0.demandMissLatency::cache_hierarchy.l1d-cache-0.prefetcher       837000                       # number of demand (read+write) miss ticks (Tick)
board.cache_hierarchy.l2-cache-0.demandMissLatency::processor.cores.core.inst     19764000                       # number of demand (read+write) miss ticks (Tick)
board.cache_hierarchy.l2-cache-0.demandMissLatency::processor.cores.core.data     13008000                       # number of demand (read+write) miss ticks (Tick)
board.cache_hierarchy.l2-cache-0.demandMissLatency::total     33609000                       # number of demand (read+write) miss ticks (Tick)
board.cache_hierarchy.l2-cache-0.overallMissLatency::cache_hierarchy.l1d-cache-0.prefetcher       837000                       # number of overall miss ticks (Tick)
board.cache_hierarchy.l2-cache-0.overallMissLatency::processor.cores.core.inst     19764000                       # number of overall miss ticks (Tick)
board.cache_hierarchy.l2-cache-0.overallMissLatency::processor.cores.core.data     13008000                       # number of overall miss ticks (Tick)
board.cache_hierarchy.l2-cache-0.overallMissLatency::total     33609000                       # number of overall miss ticks (Tick)
board.cache_hierarchy.l2-cache-0.demandAccesses::cache_hierarchy.l1d-cache-0.prefetcher           47                       # number of demand (read+write) accesses (Count)
board.cache_hierarchy.l2-cache-0.demandAccesses::processor.cores.core.inst          287                       # number of demand (read+write) accesses (Count)
board.cache_hierarchy.l2-cache-0.demandAccesses::processor.cores.core.data          193                       # number of demand (read+write) accesses (Count)
board.cache_hierarchy.l2-cache-0.demandAccesses::total          527                       # number of demand (read+write) accesses (Count)
board.cache_hierarchy.l2-cache-0.overallAccesses::cache_hierarchy.l1d-cache-0.prefetcher           47                       # number of overall (read+write) accesses (Count)
board.cache_hierarchy.l2-cache-0.overallAccesses::processor.cores.core.inst          287                       # number of overall (read+write) accesses (Count)
board.cache_hierarchy.l2-cache-0.overallAccesses::processor.cores.core.data          193                       # number of overall (read+write) accesses (Count)
board.cache_hierarchy.l2-cache-0.overallAccesses::total          527                       # number of overall (read+write) accesses (Count)
board.cache_hierarchy.l2-cache-0.demandMissRate::cache_hierarchy.l1d-cache-0.prefetcher     0.276596                       # miss rate for demand accesses (Ratio)
board.cache_hierarchy.l2-cache-0.demandMissRate::processor.cores.core.inst            1                       # miss rate for demand accesses (Ratio)
board.cache_hierarchy.l2-cache-0.demandMissRate::processor.cores.core.data     0.968912                       # miss rate for demand accesses (Ratio)
board.cache_hierarchy.l2-cache-0.demandMissRate::total     0.924099                       # miss rate for demand accesses (Ratio)
board.cache_hierarchy.l2-cache-0.overallMissRate::cache_hierarchy.l1d-cache-0.prefetcher     0.276596                       # miss rate for overall accesses (Ratio)
board.cache_hierarchy.l2-cache-0.overallMissRate::processor.cores.core.inst            1                       # miss rate for overall accesses (Ratio)
board.cache_hierarchy.l2-cache-0.overallMissRate::processor.cores.core.data     0.968912                       # miss rate for overall accesses (Ratio)
board.cache_hierarchy.l2-cache-0.overallMissRate::total     0.924099                       # miss rate for overall accesses (Ratio)
board.cache_hierarchy.l2-cache-0.demandAvgMissLatency::cache_hierarchy.l1d-cache-0.prefetcher 64384.615385                       # average overall miss latency in ticks ((Tick/Count))
board.cache_hierarchy.l2-cache-0.demandAvgMissLatency::processor.cores.core.inst 68864.111498                       # average overall miss latency in ticks ((Tick/Count))
board.cache_hierarchy.l2-cache-0.demandAvgMissLatency::processor.cores.core.data 69561.497326                       # average overall miss latency in ticks ((Tick/Count))
board.cache_hierarchy.l2-cache-0.demandAvgMissLatency::total 69012.320329                       # average overall miss latency in ticks ((Tick/Count))
board.cache_hierarchy.l2-cache-0.overallAvgMissLatency::cache_hierarchy.l1d-cache-0.prefetcher 64384.615385                       # average overall miss latency ((Tick/Count))
board.cache_hierarchy.l2-cache-0.overallAvgMissLatency::processor.cores.core.inst 68864.111498                       # average overall miss latency ((Tick/Count))
board.cache_hierarchy.l2-cache-0.overallAvgMissLatency::processor.cores.core.data 69561.497326                       # average overall miss latency ((Tick/Count))
board.cache_hierarchy.l2-cache-0.overallAvgMissLatency::total 69012.320329                       # average overall miss latency ((Tick/Count))
board.cache_hierarchy.l2-cache-0.blockedCycles::no_mshrs            0                       # number of cycles access was blocked (Cycle)
board.cache_hierarchy.l2-cache-0.blockedCycles::no_targets            0                       # number of cycles access was blocked (Cycle)
board.cache_hierarchy.l2-cache-0.blockedCauses::no_mshrs            0                       # number of times access was blocked (Count)
board.cache_hierarchy.l2-cache-0.blockedCauses::no_targets            0                       # number of times access was blocked (Count)
board.cache_hierarchy.l2-cache-0.avgBlocked::no_mshrs          nan                       # average number of cycles each access was blocked ((Cycle/Count))
board.cache_hierarchy.l2-cache-0.avgBlocked::no_targets          nan                       # average number of cycles each access was blocked ((Cycle/Count))
board.cache_hierarchy.l2-cache-0.demandMshrHits::cache_hierarchy.l1d-cache-0.prefetcher            9                       # number of demand (read+write) MSHR hits (Count)
board.cache_hierarchy.l2-cache-0.demandMshrHits::total            9                       # number of demand (read+write) MSHR hits (Count)
board.cache_hierarchy.l2-cache-0.overallMshrHits::cache_hierarchy.l1d-cache-0.prefetcher            9                       # number of overall MSHR hits (Count)
board.cache_hierarchy.l2-cache-0.overallMshrHits::total            9                       # number of overall MSHR hits (Count)
board.cache_hierarchy.l2-cache-0.demandMshrMisses::cache_hierarchy.l1d-cache-0.prefetcher            4                       # number of demand (read+write) MSHR misses (Count)
board.cache_hierarchy.l2-cache-0.demandMshrMisses::processor.cores.core.inst          287                       # number of demand (read+write) MSHR misses (Count)
board.cache_hierarchy.l2-cache-0.demandMshrMisses::processor.cores.core.data          187                       # number of demand (read+write) MSHR misses (Count)
board.cache_hierarchy.l2-cache-0.demandMshrMisses::total          478                       # number of demand (read+write) MSHR misses (Count)
board.cache_hierarchy.l2-cache-0.overallMshrMisses::cache_hierarchy.l1d-cache-0.prefetcher            4                       # number of overall MSHR misses (Count)
board.cache_hierarchy.l2-cache-0.overallMshrMisses::cache_hierarchy.l2-cache-0.prefetcher           52                       # number of overall MSHR misses (Count)
board.cache_hierarchy.l2-cache-0.overallMshrMisses::processor.cores.core.inst          287                       # number of overall MSHR misses (Count)
board.cache_hierarchy.l2-cache-0.overallMshrMisses::processor.cores.core.data          187                       # number of overall MSHR misses (Count)
board.cache_hierarchy.l2-cache-0.overallMshrMisses::total          530                       # number of overall MSHR misses (Count)
board.cache_hierarchy.l2-cache-0.demandMshrMissLatency::cache_hierarchy.l1d-cache-0.prefetcher       356000                       # number of demand (read+write) MSHR miss ticks (Tick)
board.cache_hierarchy.l2-cache-0.demandMshrMissLatency::processor.cores.core.inst     19477000                       # number of demand (read+write) MSHR miss ticks (Tick)
board.cache_hierarchy.l2-cache-0.demandMshrMissLatency::processor.cores.core.data     12821000                       # number of demand (read+write) MSHR miss ticks (Tick)
board.cache_hierarchy.l2-cache-0.demandMshrMissLatency::total     32654000                       # number of demand (read+write) MSHR miss ticks (Tick)
board.cache_hierarchy.l2-cache-0.overallMshrMissLatency::cache_hierarchy.l1d-cache-0.prefetcher       356000                       # number of overall MSHR miss ticks (Tick)
board.cache_hierarchy.l2-cache-0.overallMshrMissLatency::cache_hierarchy.l2-cache-0.prefetcher      2854789                       # number of overall MSHR miss ticks (Tick)
board.cache_hierarchy.l2-cache-0.overallMshrMissLatency::processor.cores.core.inst     19477000                       # number of overall MSHR miss ticks (Tick)
board.cache_hierarchy.l2-cache-0.overallMshrMissLatency::processor.cores.core.data     12821000                       # number of overall MSHR miss ticks (Tick)
board.cache_hierarchy.l2-cache-0.overallMshrMissLatency::total     35508789                       # number of overall MSHR miss ticks (Tick)
board.cache_hierarchy.l2-cache-0.demandMshrMissRate::cache_hierarchy.l1d-cache-0.prefetcher     0.085106                       # mshr miss ratio for demand accesses (Ratio)
board.cache_hierarchy.l2-cache-0.demandMshrMissRate::processor.cores.core.inst            1                       # mshr miss ratio for demand accesses (Ratio)
board.cache_hierarchy.l2-cache-0.demandMshrMissRate::processor.cores.core.data     0.968912                       # mshr miss ratio for demand accesses (Ratio)
board.cache_hierarchy.l2-cache-0.demandMshrMissRate::total     0.907021                       # mshr miss ratio for demand accesses (Ratio)
board.cache_hierarchy.l2-cache-0.overallMshrMissRate::cache_hierarchy.l1d-cache-0.prefetcher     0.085106                       # mshr miss ratio for overall accesses (Ratio)
board.cache_hierarchy.l2-cache-0.overallMshrMissRate::cache_hierarchy.l2-cache-0.prefetcher          inf                       # mshr miss ratio for overall accesses (Ratio)
board.cache_hierarchy.l2-cache-0.overallMshrMissRate::processor.cores.core.inst            1                       # mshr miss ratio for overall accesses (Ratio)
board.cache_hierarchy.l2-cache-0.overallMshrMissRate::processor.cores.core.data     0.968912                       # mshr miss ratio for overall accesses (Ratio)
board.cache_hierarchy.l2-cache-0.overallMshrMissRate::total     1.005693                       # mshr miss ratio for overall accesses (Ratio)
board.cache_hierarchy.l2-cache-0.demandAvgMshrMissLatency::cache_hierarchy.l1d-cache-0.prefetcher        89000                       # average overall mshr miss latency ((Tick/Count))
board.cache_hierarchy.l2-cache-0.demandAvgMshrMissLatency::processor.cores.core.inst 67864.111498                       # average overall mshr miss latency ((Tick/Count))
board.cache_hierarchy.l2-cache-0.demandAvgMshrMissLatency::processor.cores.core.data 68561.497326                       # average overall mshr miss latency ((Tick/Count))
board.cache_hierarchy.l2-cache-0.demandAvgMshrMissLatency::total 68313.807531                       # average overall mshr miss latency ((Tick/Count))
board.cache_hierarchy.l2-cache-0.overallAvgMshrMissLatency::cache_hierarchy.l1d-cache-0.prefetcher        89000                       # average overall mshr miss latency ((Tick/Count))
board.cache_hierarchy.l2-cache-0.overallAvgMshrMissLatency::cache_hierarchy.l2-cache-0.prefetcher 54899.788462                       # average overall mshr miss latency ((Tick/Count))
board.cache_hierarchy.l2-cache-0.overallAvgMshrMissLatency::processor.cores.core.inst 67864.111498                       # average overall mshr miss latency ((Tick/Count))
board.cache_hierarchy.l2-cache-0.overallAvgMshrMissLatency::processor.cores.core.data 68561.497326                       # average overall mshr miss latency ((Tick/Count))
board.cache_hierarchy.l2-cache-0.overallAvgMshrMissLatency::total 66997.715094                       # average overall mshr miss latency ((Tick/Count))
board.cache_hierarchy.l2-cache-0.replacements            0                       # number of replacements (Count)
board.cache_hierarchy.l2-cache-0.HardPFReq.mshrMisses::cache_hierarchy.l2-cache-0.prefetcher           52                       # number of HardPFReq MSHR misses (Count)
board.cache_hierarchy.l2-cache-0.HardPFReq.mshrMisses::total           52                       # number of HardPFReq MSHR misses (Count)
board.cache_hierarchy.l2-cache-0.HardPFReq.mshrMissLatency::cache_hierarchy.l2-cache-0.prefetcher      2854789                       # number of HardPFReq MSHR miss ticks (Tick)
board.cache_hierarchy.l2-cache-0.HardPFReq.mshrMissLatency::total      2854789                       # number of HardPFReq MSHR miss ticks (Tick)
board.cache_hierarchy.l2-cache-0.HardPFReq.mshrMissRate::cache_hierarchy.l2-cache-0.prefetcher          inf                       # mshr miss rate for HardPFReq accesses (Ratio)
board.cache_hierarchy.l2-cache-0.HardPFReq.mshrMissRate::total          inf                       # mshr miss rate for HardPFReq accesses (Ratio)
board.cache_hierarchy.l2-cache-0.HardPFReq.avgMshrMissLatency::cache_hierarchy.l2-cache-0.prefetcher 54899.788462                       # average HardPFReq mshr miss latency ((Tick/Count))
board.cache_hierarchy.l2-cache-0.HardPFReq.avgMshrMissLatency::total 54899.788462                       # average HardPFReq mshr miss latency ((Tick/Count))
board.cache_hierarchy.l2-cache-0.ReadExReq.hits::processor.cores.core.data            4                       # number of ReadExReq hits (Count)
board.cache_hierarchy.l2-cache-0.ReadExReq.hits::total            4                       # number of ReadExReq hits (Count)
board.cache_hierarchy.l2-cache-0.ReadExReq.misses::processor.cores.core.data           85                       # number of ReadExReq misses (Count)
board.cache_hierarchy.l2-cache-0.ReadExReq.misses::total           85                       # number of ReadExReq misses (Count)
board.cache_hierarchy.l2-cache-0.ReadExReq.missLatency::processor.cores.core.data      6059000                       # number of ReadExReq miss ticks (Tick)
board.cache_hierarchy.l2-cache-0.ReadExReq.missLatency::total      6059000                       # number of ReadExReq miss ticks (Tick)
board.cache_hierarchy.l2-cache-0.ReadExReq.accesses::processor.cores.core.data           89                       # number of ReadExReq accesses(hits+misses) (Count)
board.cache_hierarchy.l2-cache-0.ReadExReq.accesses::total           89                       # number of ReadExReq accesses(hits+misses) (Count)
board.cache_hierarchy.l2-cache-0.ReadExReq.missRate::processor.cores.core.data     0.955056                       # miss rate for ReadExReq accesses (Ratio)
board.cache_hierarchy.l2-cache-0.ReadExReq.missRate::total     0.955056                       # miss rate for ReadExReq accesses (Ratio)
board.cache_hierarchy.l2-cache-0.ReadExReq.avgMissLatency::processor.cores.core.data 71282.352941                       # average ReadExReq miss latency ((Tick/Count))
board.cache_hierarchy.l2-cache-0.ReadExReq.avgMissLatency::total 71282.352941                       # average ReadExReq miss latency ((Tick/Count))
board.cache_hierarchy.l2-cache-0.ReadExReq.mshrMisses::processor.cores.core.data           85                       # number of ReadExReq MSHR misses (Count)
board.cache_hierarchy.l2-cache-0.ReadExReq.mshrMisses::total           85                       # number of ReadExReq MSHR misses (Count)
board.cache_hierarchy.l2-cache-0.ReadExReq.mshrMissLatency::processor.cores.core.data      5974000                       # number of ReadExReq MSHR miss ticks (Tick)
board.cache_hierarchy.l2-cache-0.ReadExReq.mshrMissLatency::total      5974000                       # number of ReadExReq MSHR miss ticks (Tick)
board.cache_hierarchy.l2-cache-0.ReadExReq.mshrMissRate::processor.cores.core.data     0.955056                       # mshr miss rate for ReadExReq accesses (Ratio)
board.cache_hierarchy.l2-cache-0.ReadExReq.mshrMissRate::total     0.955056                       # mshr miss rate for ReadExReq accesses (Ratio)
board.cache_hierarchy.l2-cache-0.ReadExReq.avgMshrMissLatency::processor.cores.core.data 70282.352941                       # average ReadExReq mshr miss latency ((Tick/Count))
board.cache_hierarchy.l2-cache-0.ReadExReq.avgMshrMissLatency::total 70282.352941                       # average ReadExReq mshr miss latency ((Tick/Count))
board.cache_hierarchy.l2-cache-0.ReadSharedReq.hits::cache_hierarchy.l1d-cache-0.prefetcher           34                       # number of ReadSharedReq hits (Count)
board.cache_hierarchy.l2-cache-0.ReadSharedReq.hits::processor.cores.core.data            2                       # number of ReadSharedReq hits (Count)
board.cache_hierarchy.l2-cache-0.ReadSharedReq.hits::total           36                       # number of ReadSharedReq hits (Count)
board.cache_hierarchy.l2-cache-0.ReadSharedReq.misses::cache_hierarchy.l1d-cache-0.prefetcher           13                       # number of ReadSharedReq misses (Count)
board.cache_hierarchy.l2-cache-0.ReadSharedReq.misses::processor.cores.core.inst          287                       # number of ReadSharedReq misses (Count)
board.cache_hierarchy.l2-cache-0.ReadSharedReq.misses::processor.cores.core.data          102                       # number of ReadSharedReq misses (Count)
board.cache_hierarchy.l2-cache-0.ReadSharedReq.misses::total          402                       # number of ReadSharedReq misses (Count)
board.cache_hierarchy.l2-cache-0.ReadSharedReq.missLatency::cache_hierarchy.l1d-cache-0.prefetcher       837000                       # number of ReadSharedReq miss ticks (Tick)
board.cache_hierarchy.l2-cache-0.ReadSharedReq.missLatency::processor.cores.core.inst     19764000                       # number of ReadSharedReq miss ticks (Tick)
board.cache_hierarchy.l2-cache-0.ReadSharedReq.missLatency::processor.cores.core.data      6949000                       # number of ReadSharedReq miss ticks (Tick)
board.cache_hierarchy.l2-cache-0.ReadSharedReq.missLatency::total     27550000                       # number of ReadSharedReq miss ticks (Tick)
board.cache_hierarchy.l2-cache-0.ReadSharedReq.accesses::cache_hierarchy.l1d-cache-0.prefetcher           47                       # number of ReadSharedReq accesses(hits+misses) (Count)
board.cache_hierarchy.l2-cache-0.ReadSharedReq.accesses::processor.cores.core.inst          287                       # number of ReadSharedReq accesses(hits+misses) (Count)
board.cache_hierarchy.l2-cache-0.ReadSharedReq.accesses::processor.cores.core.data          104                       # number of ReadSharedReq accesses(hits+misses) (Count)
board.cache_hierarchy.l2-cache-0.ReadSharedReq.accesses::total          438                       # number of ReadSharedReq accesses(hits+misses) (Count)
board.cache_hierarchy.l2-cache-0.ReadSharedReq.missRate::cache_hierarchy.l1d-cache-0.prefetcher     0.276596                       # miss rate for ReadSharedReq accesses (Ratio)
board.cache_hierarchy.l2-cache-0.ReadSharedReq.missRate::processor.cores.core.inst            1                       # miss rate for ReadSharedReq accesses (Ratio)
board.cache_hierarchy.l2-cache-0.ReadSharedReq.missRate::processor.cores.core.data     0.980769                       # miss rate for ReadSharedReq accesses (Ratio)
board.cache_hierarchy.l2-cache-0.ReadSharedReq.missRate::total     0.917808                       # miss rate for ReadSharedReq accesses (Ratio)
board.cache_hierarchy.l2-cache-0.ReadSharedReq.avgMissLatency::cache_hierarchy.l1d-cache-0.prefetcher 64384.615385                       # average ReadSharedReq miss latency ((Tick/Count))
board.cache_hierarchy.l2-cache-0.ReadSharedReq.avgMissLatency::processor.cores.core.inst 68864.111498                       # average ReadSharedReq miss latency ((Tick/Count))
board.cache_hierarchy.l2-cache-0.ReadSharedReq.avgMissLatency::processor.cores.core.data 68127.450980                       # average ReadSharedReq miss latency ((Tick/Count))
board.cache_hierarchy.l2-cache-0.ReadSharedReq.avgMissLatency::total 68532.338308                       # average ReadSharedReq miss latency ((Tick/Count))
board.cache_hierarchy.l2-cache-0.ReadSharedReq.mshrHits::cache_hierarchy.l1d-cache-0.prefetcher            9                       # number of ReadSharedReq MSHR hits (Count)
board.cache_hierarchy.l2-cache-0.ReadSharedReq.mshrHits::total            9                       # number of ReadSharedReq MSHR hits (Count)
board.cache_hierarchy.l2-cache-0.ReadSharedReq.mshrMisses::cache_hierarchy.l1d-cache-0.prefetcher            4                       # number of ReadSharedReq MSHR misses (Count)
board.cache_hierarchy.l2-cache-0.ReadSharedReq.mshrMisses::processor.cores.core.inst          287                       # number of ReadSharedReq MSHR misses (Count)
board.cache_hierarchy.l2-cache-0.ReadSharedReq.mshrMisses::processor.cores.core.data          102                       # number of ReadSharedReq MSHR misses (Count)
board.cache_hierarchy.l2-cache-0.ReadSharedReq.mshrMisses::total          393                       # number of ReadSharedReq MSHR misses (Count)
board.cache_hierarchy.l2-cache-0.ReadSharedReq.mshrMissLatency::cache_hierarchy.l1d-cache-0.prefetcher       356000                       # number of ReadSharedReq MSHR miss ticks (Tick)
board.cache_hierarchy.l2-cache-0.ReadSharedReq.mshrMissLatency::processor.cores.core.inst     19477000                       # number of ReadSharedReq MSHR miss ticks (Tick)
board.cache_hierarchy.l2-cache-0.ReadSharedReq.mshrMissLatency::processor.cores.core.data      6847000                       # number of ReadSharedReq MSHR miss ticks (Tick)
board.cache_hierarchy.l2-cache-0.ReadSharedReq.mshrMissLatency::total     26680000                       # number of ReadSharedReq MSHR miss ticks (Tick)
board.cache_hierarchy.l2-cache-0.ReadSharedReq.mshrMissRate::cache_hierarchy.l1d-cache-0.prefetcher     0.085106                       # mshr miss rate for ReadSharedReq accesses (Ratio)
board.cache_hierarchy.l2-cache-0.ReadSharedReq.mshrMissRate::processor.cores.core.inst            1                       # mshr miss rate for ReadSharedReq accesses (Ratio)
board.cache_hierarchy.l2-cache-0.ReadSharedReq.mshrMissRate::processor.cores.core.data     0.980769                       # mshr miss rate for ReadSharedReq accesses (Ratio)
board.cache_hierarchy.l2-cache-0.ReadSharedReq.mshrMissRate::total     0.897260                       # mshr miss rate for ReadSharedReq accesses (Ratio)
board.cache_hierarchy.l2-cache-0.ReadSharedReq.avgMshrMissLatency::cache_hierarchy.l1d-cache-0.prefetcher        89000                       # average ReadSharedReq mshr miss latency ((Tick/Count))
board.cache_hierarchy.l2-cache-0.ReadSharedReq.avgMshrMissLatency::processor.cores.core.inst 67864.111498                       # average ReadSharedReq mshr miss latency ((Tick/Count))
board.cache_hierarchy.l2-cache-0.ReadSharedReq.avgMshrMissLatency::processor.cores.core.data 67127.450980                       # average ReadSharedReq mshr miss latency ((Tick/Count))
board.cache_hierarchy.l2-cache-0.ReadSharedReq.avgMshrMissLatency::total 67888.040712                       # average ReadSharedReq mshr miss latency ((Tick/Count))
board.cache_hierarchy.l2-cache-0.WritebackClean.hits::writebacks           43                       # number of WritebackClean hits (Count)
board.cache_hierarchy.l2-cache-0.WritebackClean.hits::total           43                       # number of WritebackClean hits (Count)
board.cache_hierarchy.l2-cache-0.WritebackClean.accesses::writebacks           43                       # number of WritebackClean accesses(hits+misses) (Count)
board.cache_hierarchy.l2-cache-0.WritebackClean.accesses::total           43                       # number of WritebackClean accesses(hits+misses) (Count)
board.cache_hierarchy.l2-cache-0.WritebackDirty.hits::writebacks           13                       # number of WritebackDirty hits (Count)
board.cache_hierarchy.l2-cache-0.WritebackDirty.hits::total           13                       # number of WritebackDirty hits (Count)
board.cache_hierarchy.l2-cache-0.WritebackDirty.accesses::writebacks           13                       # number of WritebackDirty accesses(hits+misses) (Count)
board.cache_hierarchy.l2-cache-0.WritebackDirty.accesses::total           13                       # number of WritebackDirty accesses(hits+misses) (Count)
board.cache_hierarchy.l2-cache-0.power_state.pwrStateResidencyTicks::UNDEFINED     73363000                       # Cumulative time (in ticks) in various power states (Tick)
board.cache_hierarchy.l2-cache-0.prefetcher.demandMshrMisses          478                       # demands not covered by prefetchs (Count)
board.cache_hierarchy.l2-cache-0.prefetcher.pfIssued          161                       # number of hwpf issued (Count)
board.cache_hierarchy.l2-cache-0.prefetcher.pfUseful           38                       # number of useful prefetch (Count)
board.cache_hierarchy.l2-cache-0.prefetcher.pfUsefulButMiss            0                       # number of hit on prefetch but cache block is not in an usable state (Count)
board.cache_hierarchy.l2-cache-0.prefetcher.accuracy     0.236025                       # accuracy of the prefetcher (Count)
board.cache_hierarchy.l2-cache-0.prefetcher.coverage     0.073643                       # coverage brought by this prefetcher (Count)
board.cache_hierarchy.l2-cache-0.prefetcher.pfHitInCache           51                       # number of prefetches hitting in cache (Count)
board.cache_hierarchy.l2-cache-0.prefetcher.pfHitInMSHR           58                       # number of prefetches hitting in a MSHR (Count)
board.cache_hierarchy.l2-cache-0.prefetcher.pfHitInWB            0                       # number of prefetches hit in the Write Buffer (Count)
board.cache_hierarchy.l2-cache-0.prefetcher.pfLate          109                       # number of late prefetches (hitting in cache, MSHR or WB) (Count)
board.cache_hierarchy.l2-cache-0.prefetcher.pfIdentified          193                       # number of prefetch candidates identified (Count)
board.cache_hierarchy.l2-cache-0.prefetcher.pfBufferHit           20                       # number of redundant prefetches already in prefetch queue (Count)
board.cache_hierarchy.l2-cache-0.prefetcher.pfInCache            0                       # number of redundant prefetches already in cache/mshr dropped (Count)
board.cache_hierarchy.l2-cache-0.prefetcher.pfRemovedDemand            8                       # number of prefetches dropped due to a demand for the same address (Count)
board.cache_hierarchy.l2-cache-0.prefetcher.pfRemovedFull            0                       # number of prefetches dropped due to prefetch queue size (Count)
board.cache_hierarchy.l2-cache-0.prefetcher.pfSpanPage            7                       # number of prefetches that crossed the page (Count)
board.cache_hierarchy.l2-cache-0.prefetcher.pfUsefulSpanPage            3                       # number of prefetches that is useful and crossed the page (Count)
board.cache_hierarchy.l2-cache-0.prefetcher.power_state.pwrStateResidencyTicks::UNDEFINED     73363000                       # Cumulative time (in ticks) in various power states (Tick)
board.cache_hierarchy.l2-cache-0.tags.tagsInUse   326.237779                       # Average ticks per tags in use ((Tick/Count))
board.cache_hierarchy.l2-cache-0.tags.totalRefs          632                       # Total number of references to valid blocks. (Count)
board.cache_hierarchy.l2-cache-0.tags.sampledRefs          530                       # Sample count of references to valid blocks. (Count)
board.cache_hierarchy.l2-cache-0.tags.avgRefs     1.192453                       # Average number of references to valid blocks. ((Count/Count))
board.cache_hierarchy.l2-cache-0.tags.warmupTick        77000                       # The tick when the warmup percentage was hit. (Tick)
board.cache_hierarchy.l2-cache-0.tags.occupancies::cache_hierarchy.l1d-cache-0.prefetcher     3.058667                       # Average occupied blocks per tick, per requestor ((Count/Tick))
board.cache_hierarchy.l2-cache-0.tags.occupancies::cache_hierarchy.l2-cache-0.prefetcher    42.594441                       # Average occupied blocks per tick, per requestor ((Count/Tick))
board.cache_hierarchy.l2-cache-0.tags.occupancies::processor.cores.core.inst   154.883281                       # Average occupied blocks per tick, per requestor ((Count/Tick))
board.cache_hierarchy.l2-cache-0.tags.occupancies::processor.cores.core.data   125.701390                       # Average occupied blocks per tick, per requestor ((Count/Tick))
board.cache_hierarchy.l2-cache-0.tags.avgOccs::cache_hierarchy.l1d-cache-0.prefetcher     0.000747                       # Average percentage of cache occupancy ((Ratio/Tick))
board.cache_hierarchy.l2-cache-0.tags.avgOccs::cache_hierarchy.l2-cache-0.prefetcher     0.010399                       # Average percentage of cache occupancy ((Ratio/Tick))
board.cache_hierarchy.l2-cache-0.tags.avgOccs::processor.cores.core.inst     0.037813                       # Average percentage of cache occupancy ((Ratio/Tick))
board.cache_hierarchy.l2-cache-0.tags.avgOccs::processor.cores.core.data     0.030689                       # Average percentage of cache occupancy ((Ratio/Tick))
board.cache_hierarchy.l2-cache-0.tags.avgOccs::total     0.079648                       # Average percentage of cache occupancy ((Ratio/Tick))
board.cache_hierarchy.l2-cache-0.tags.occupanciesTaskId::1022           56                       # Occupied blocks per task id (Count)
board.cache_hierarchy.l2-cache-0.tags.occupanciesTaskId::1024          474                       # Occupied blocks per task id (Count)
board.cache_hierarchy.l2-cache-0.tags.ageTaskId_1022::1           56                       # Occupied blocks per task id, per block age (Count)
board.cache_hierarchy.l2-cache-0.tags.ageTaskId_1024::0          105                       # Occupied blocks per task id, per block age (Count)
board.cache_hierarchy.l2-cache-0.tags.ageTaskId_1024::1          369                       # Occupied blocks per task id, per block age (Count)
board.cache_hierarchy.l2-cache-0.tags.ratioOccsTaskId::1022     0.013672                       # Ratio of occupied blocks and all blocks, per task id (Ratio)
board.cache_hierarchy.l2-cache-0.tags.ratioOccsTaskId::1024     0.115723                       # Ratio of occupied blocks and all blocks, per task id (Ratio)
board.cache_hierarchy.l2-cache-0.tags.tagAccesses         9954                       # Number of tag accesses (Count)
board.cache_hierarchy.l2-cache-0.tags.dataAccesses         9954                       # Number of data accesses (Count)
board.cache_hierarchy.l2-cache-0.tags.power_state.pwrStateResidencyTicks::UNDEFINED     73363000                       # Cumulative time (in ticks) in various power states (Tick)
board.cache_hierarchy.l2buses.transDist::ReadResp          438                       # Transaction distribution (Count)
board.cache_hierarchy.l2buses.transDist::WritebackDirty           13                       # Transaction distribution (Count)
board.cache_hierarchy.l2buses.transDist::WritebackClean           43                       # Transaction distribution (Count)
board.cache_hierarchy.l2buses.transDist::CleanEvict            6                       # Transaction distribution (Count)
board.cache_hierarchy.l2buses.transDist::HardPFReq           69                       # Transaction distribution (Count)
board.cache_hierarchy.l2buses.transDist::ReadExReq           89                       # Transaction distribution (Count)
board.cache_hierarchy.l2buses.transDist::ReadExResp           89                       # Transaction distribution (Count)
board.cache_hierarchy.l2buses.transDist::ReadSharedReq          438                       # Transaction distribution (Count)
board.cache_hierarchy.l2buses.pktCount_board.cache_hierarchy.l1i-cache-0.mem_side_port::board.cache_hierarchy.l2-cache-0.cpu_side_port          617                       # Packet count per connected requestor and responder (Count)
board.cache_hierarchy.l2buses.pktCount_board.cache_hierarchy.l1d-cache-0.mem_side_port::board.cache_hierarchy.l2-cache-0.cpu_side_port          499                       # Packet count per connected requestor and responder (Count)
board.cache_hierarchy.l2buses.pktCount::total         1116                       # Packet count per connected requestor and responder (Count)
board.cache_hierarchy.l2buses.pktSize_board.cache_hierarchy.l1i-cache-0.mem_side_port::board.cache_hierarchy.l2-cache-0.cpu_side_port        21120                       # Cumulative packet size per connected requestor and responder (Byte)
[...]
board.processor.cores.core.commitStats0.committedInstType::IntMult            3      0.01%     58.62% # Class of committed instruction. (Count)
board.processor.cores.core.commitStats0.committedInstType::IntDiv            4      0.02%     58.64% # Class of committed instruction. (Count)
board.processor.cores.core.commitStats0.committedInstType::FloatAdd            0      0.00%     58.64% # Class of committed instruction. (Count)
board.processor.cores.core.commitStats0.committedInstType::FloatCmp            0      0.00%     58.64% # Class of committed instruction. (Count)
board.processor.cores.core.commitStats0.committedInstType::FloatCvt            0      0.00%     58.64% # Class of committed instruction. (Count)
board.processor.cores.core.commitStats0.committedInstType::FloatMult            0      0.00%     58.64% # Class of committed instruction. (Count)
board.processor.cores.core.commitStats0.committedInstType::FloatMultAcc            0      0.00%     58.64% # Class of committed instruction. (Count)
board.processor.cores.core.commitStats0.committedInstType::FloatDiv            0      0.00%     58.64% # Class of committed instruction. (Count)
board.processor.cores.core.commitStats0.committedInstType::FloatMisc            0      0.00%     58.64% # Class of committed instruction. (Count)
board.processor.cores.core.commitStats0.committedInstType::FloatSqrt            0      0.00%     58.64% # Class of committed instruction. (Count)
board.processor.cores.core.commitStats0.committedInstType::SimdAdd            0      0.00%     58.64% # Class of committed instruction. (Count)
board.processor.cores.core.commitStats0.committedInstType::SimdAddAcc            0      0.00%     58.64% # Class of committed instruction. (Count)
board.processor.cores.core.commitStats0.committedInstType::SimdAlu            0      0.00%     58.64% # Class of committed instruction. (Count)
board.processor.cores.core.commitStats0.committedInstType::SimdCmp            0      0.00%     58.64% # Class of committed instruction. (Count)
board.processor.cores.core.commitStats0.committedInstType::SimdCvt            0      0.00%     58.64% # Class of committed instruction. (Count)
board.processor.cores.core.commitStats0.committedInstType::SimdMisc            0      0.00%     58.64% # Class of committed instruction. (Count)
board.processor.cores.core.commitStats0.committedInstType::SimdMult            0      0.00%     58.64% # Class of committed instruction. (Count)
board.processor.cores.core.commitStats0.committedInstType::SimdMultAcc            0      0.00%     58.64% # Class of committed instruction. (Count)
board.processor.cores.core.commitStats0.committedInstType::SimdMatMultAcc            0      0.00%     58.64% # Class of committed instruction. (Count)
board.processor.cores.core.commitStats0.committedInstType::SimdShift            0      0.00%     58.64% # Class of committed instruction. (Count)
board.processor.cores.core.commitStats0.committedInstType::SimdShiftAcc            0      0.00%     58.64% # Class of committed instruction. (Count)
board.processor.cores.core.commitStats0.committedInstType::SimdDiv            0      0.00%     58.64% # Class of committed instruction. (Count)
board.processor.cores.core.commitStats0.committedInstType::SimdSqrt            0      0.00%     58.64% # Class of committed instruction. (Count)
board.processor.cores.core.commitStats0.committedInstType::SimdFloatAdd            0      0.00%     58.64% # Class of committed instruction. (Count)
board.processor.cores.core.commitStats0.committedInstType::SimdFloatAlu            0      0.00%     58.64% # Class of committed instruction. (Count)
board.processor.cores.core.commitStats0.committedInstType::SimdFloatCmp            0      0.00%     58.64% # Class of committed instruction. (Count)
board.processor.cores.core.commitStats0.committedInstType::SimdFloatCvt            0      0.00%     58.64% # Class of committed instruction. (Count)
board.processor.cores.core.commitStats0.committedInstType::SimdFloatDiv            0      0.00%     58.64% # Class of committed instruction. (Count)
board.processor.cores.core.commitStats0.committedInstType::SimdFloatMisc            0      0.00%     58.64% # Class of committed instruction. (Count)
board.processor.cores.core.commitStats0.committedInstType::SimdFloatMult            0      0.00%     58.64% # Class of committed instruction. (Count)
board.processor.cores.core.commitStats0.committedInstType::SimdFloatMultAcc            0      0.00%     58.64% # Class of committed instruction. (Count)
board.processor.cores.core.commitStats0.committedInstType::SimdFloatMatMultAcc            0      0.00%     58.64% # Class of committed instruction. (Count)
board.processor.cores.core.commitStats0.committedInstType::SimdFloatSqrt            0      0.00%     58.64% # Class of committed instruction. (Count)
board.processor.cores.core.commitStats0.committedInstType::SimdReduceAdd            0      0.00%     58.64% # Class of committed instruction. (Count)
board.processor.cores.core.commitStats0.committedInstType::SimdReduceAlu            0      0.00%     58.64% # Class of committed instruction. (Count)
board.processor.cores.core.commitStats0.committedInstType::SimdReduceCmp            0      0.00%     58.64% # Class of committed instruction. (Count)
board.processor.cores.core.commitStats0.committedInstType::SimdFloatReduceAdd            0      0.00%     58.64% # Class of committed instruction. (Count)
board.processor.cores.core.commitStats0.committedInstType::SimdFloatReduceCmp            0      0.00%     58.64% # Class of committed instruction. (Count)
board.processor.cores.core.commitStats0.committedInstType::SimdAes            0      0.00%     58.64% # Class of committed instruction. (Count)
board.processor.cores.core.commitStats0.committedInstType::SimdAesMix            0      0.00%     58.64% # Class of committed instruction. (Count)
board.processor.cores.core.commitStats0.committedInstType::SimdSha1Hash            0      0.00%     58.64% # Class of committed instruction. (Count)
board.processor.cores.core.commitStats0.committedInstType::SimdSha1Hash2            0      0.00%     58.64% # Class of committed instruction. (Count)
board.processor.cores.core.commitStats0.committedInstType::SimdSha256Hash            0      0.00%     58.64% # Class of committed instruction. (Count)
board.processor.cores.core.commitStats0.committedInstType::SimdSha256Hash2            0      0.00%     58.64% # Class of committed instruction. (Count)
board.processor.cores.core.commitStats0.committedInstType::SimdShaSigma2            0      0.00%     58.64% # Class of committed instruction. (Count)
board.processor.cores.core.commitStats0.committedInstType::SimdShaSigma3            0      0.00%     58.64% # Class of committed instruction. (Count)
board.processor.cores.core.commitStats0.committedInstType::SimdPredAlu            0      0.00%     58.64% # Class of committed instruction. (Count)
board.processor.cores.core.commitStats0.committedInstType::Matrix            0      0.00%     58.64% # Class of committed instruction. (Count)
board.processor.cores.core.commitStats0.committedInstType::MatrixMov            0      0.00%     58.64% # Class of committed instruction. (Count)
board.processor.cores.core.commitStats0.committedInstType::MatrixOP            0      0.00%     58.64% # Class of committed instruction. (Count)
board.processor.cores.core.commitStats0.committedInstType::MemRead         5339     21.05%     79.68% # Class of committed instruction. (Count)
board.processor.cores.core.commitStats0.committedInstType::MemWrite         5142     20.27%     99.95% # Class of committed instruction. (Count)
board.processor.cores.core.commitStats0.committedInstType::FloatMemRead            0      0.00%     99.95% # Class of committed instruction. (Count)
board.processor.cores.core.commitStats0.committedInstType::FloatMemWrite           12      0.05%    100.00% # Class of committed instruction. (Count)
board.processor.cores.core.commitStats0.committedInstType::IprAccess            0      0.00%    100.00% # Class of committed instruction. (Count)
board.processor.cores.core.commitStats0.committedInstType::InstPrefetch            0      0.00%    100.00% # Class of committed instruction. (Count)
board.processor.cores.core.commitStats0.committedInstType::SimdUnitStrideLoad            0      0.00%    100.00% # Class of committed instruction. (Count)
board.processor.cores.core.commitStats0.committedInstType::SimdUnitStrideStore            0      0.00%    100.00% # Class of committed instruction. (Count)
board.processor.cores.core.commitStats0.committedInstType::SimdUnitStrideMaskLoad            0      0.00%    100.00% # Class of committed instruction. (Count)
board.processor.cores.core.commitStats0.committedInstType::SimdUnitStrideMaskStore            0      0.00%    100.00% # Class of committed instruction. (Count)
board.processor.cores.core.commitStats0.committedInstType::SimdStridedLoad            0      0.00%    100.00% # Class of committed instruction. (Count)
board.processor.cores.core.commitStats0.committedInstType::SimdStridedStore            0      0.00%    100.00% # Class of committed instruction. (Count)
board.processor.cores.core.commitStats0.committedInstType::SimdIndexedLoad            0      0.00%    100.00% # Class of committed instruction. (Count)
board.processor.cores.core.commitStats0.committedInstType::SimdIndexedStore            0      0.00%    100.00% # Class of committed instruction. (Count)
board.processor.cores.core.commitStats0.committedInstType::SimdWholeRegisterLoad            0      0.00%    100.00% # Class of committed instruction. (Count)
board.processor.cores.core.commitStats0.committedInstType::SimdWholeRegisterStore            0      0.00%    100.00% # Class of committed instruction. (Count)
board.processor.cores.core.commitStats0.committedInstType::SimdUnitStrideFaultOnlyFirstLoad            0      0.00%    100.00% # Class of committed instruction. (Count)
board.processor.cores.core.commitStats0.committedInstType::SimdUnitStrideSegmentedLoad            0      0.00%    100.00% # Class of committed instruction. (Count)
board.processor.cores.core.commitStats0.committedInstType::SimdUnitStrideSegmentedStore            0      0.00%    100.00% # Class of committed instruction. (Count)
board.processor.cores.core.commitStats0.committedInstType::SimdExt            0      0.00%    100.00% # Class of committed instruction. (Count)
board.processor.cores.core.commitStats0.committedInstType::SimdFloatExt            0      0.00%    100.00% # Class of committed instruction. (Count)
board.processor.cores.core.commitStats0.committedInstType::SimdConfig            0      0.00%    100.00% # Class of committed instruction. (Count)
board.processor.cores.core.commitStats0.committedInstType::total        25367                       # Class of committed instruction. (Count)
board.processor.cores.core.commitStats0.committedControl::IsControl         3537                       # Class of control type instructions committed (Count)
board.processor.cores.core.commitStats0.committedControl::IsDirectControl         3078                       # Class of control type instructions committed (Count)
board.processor.cores.core.commitStats0.committedControl::IsIndirectControl          459                       # Class of control type instructions committed (Count)
board.processor.cores.core.commitStats0.committedControl::IsCondControl         2076                       # Class of control type instructions committed (Count)
board.processor.cores.core.commitStats0.committedControl::IsUncondControl         1461                       # Class of control type instructions committed (Count)
board.processor.cores.core.commitStats0.committedControl::IsCall          338                       # Class of control type instructions committed (Count)
board.processor.cores.core.commitStats0.committedControl::IsReturn          333                       # Class of control type instructions committed (Count)
board.processor.cores.core.exec_context.thread_0.numMatAluAccesses            0                       # Number of matrix alu accesses (Count)
board.processor.cores.core.exec_context.thread_0.numCallsReturns          671                       # Number of times a function call or return occured (Count)
board.processor.cores.core.exec_context.thread_0.numMatInsts            0                       # Number of matrix instructions (Count)
board.processor.cores.core.exec_context.thread_0.numIdleCycles     0.001000                       # Number of idle cycles (Cycle)
board.processor.cores.core.exec_context.thread_0.numBusyCycles 73362.999000                       # Number of busy cycles (Cycle)
board.processor.cores.core.exec_context.thread_0.notIdleFraction     1.000000                       # Percentage of non-idle cycles (Ratio)
board.processor.cores.core.exec_context.thread_0.idleFraction     0.000000                       # Percentage of idle cycles (Ratio)
board.processor.cores.core.executeStats0.numInsts            0                       # Number of executed instructions (Count)
board.processor.cores.core.executeStats0.numNop            0                       # Number of nop insts executed (Count)
board.processor.cores.core.executeStats0.numBranches            0                       # Number of branches executed (Count)
board.processor.cores.core.executeStats0.numLoadInsts            0                       # Number of load instructions executed (Count)
board.processor.cores.core.executeStats0.numStoreInsts        10493                       # Number of stores executed (Count)
board.processor.cores.core.executeStats0.instRate            0                       # Inst execution rate ((Count/Cycle))
board.processor.cores.core.executeStats0.numFpAluAccesses           12                       # Number of float alu accesses (Count)
board.processor.cores.core.executeStats0.numFpRegReads           12                       # Number of times the floating registers were read (Count)
board.processor.cores.core.executeStats0.numFpRegWrites            0                       # Number of times the floating registers were written (Count)
board.processor.cores.core.executeStats0.numIntAluAccesses        24662                       # Number of integer alu accesses (Count)
board.processor.cores.core.executeStats0.numIntRegReads        30246                       # Number of times the integer registers were read (Count)
board.processor.cores.core.executeStats0.numIntRegWrites        16979                       # Number of times the integer registers were written (Count)
board.processor.cores.core.executeStats0.numMemRefs        10493                       # Number of memory refs (Count)
board.processor.cores.core.executeStats0.numMiscRegReads           26                       # Number of times the Misc registers were read (Count)
board.processor.cores.core.executeStats0.numVecAluAccesses            0                       # Number of vector alu accesses (Count)
board.processor.cores.core.executeStats0.numDiscardedOps            0                       # Number of ops (including micro ops) which were discarded before commit (Count)
board.processor.cores.core.fetchStats0.numInsts        25359                       # Number of instructions fetched (thread level) (Count)
board.processor.cores.core.fetchStats0.numOps        25367                       # Number of ops (including micro ops) fetched (thread level) (Count)
board.processor.cores.core.fetchStats0.fetchRate     0.345665                       # Number of inst fetches per cycle ((Count/Cycle))
board.processor.cores.core.fetchStats0.numBranches         3537                       # Number of branches fetched (Count)
board.processor.cores.core.fetchStats0.branchRate     0.048212                       # Number of branch fetches per cycle (Ratio)
board.processor.cores.core.fetchStats0.numFetchSuspends            0                       # Number of times Execute suspended instruction fetching (Count)
board.processor.cores.core.mmu.dtb.readHits            0                       # read hits (Count)
board.processor.cores.core.mmu.dtb.readMisses            0                       # read misses (Count)
board.processor.cores.core.mmu.dtb.readAccesses            0                       # read accesses (Count)
board.processor.cores.core.mmu.dtb.writeHits            0                       # write hits (Count)
board.processor.cores.core.mmu.dtb.writeMisses            0                       # write misses (Count)
board.processor.cores.core.mmu.dtb.writeAccesses            0                       # write accesses (Count)
board.processor.cores.core.mmu.dtb.hits             0                       # Total TLB (read and write) hits (Count)
board.processor.cores.core.mmu.dtb.misses            0                       # Total TLB (read and write) misses (Count)
board.processor.cores.core.mmu.dtb.accesses            0                       # Total TLB (read and write) accesses (Count)
board.processor.cores.core.mmu.dtb.walker.num_4kb_walks            0                       # Completed page walks with 4KB pages (Count)
board.processor.cores.core.mmu.dtb.walker.num_2mb_walks            0                       # Completed page walks with 2MB pages (Count)
board.processor.cores.core.mmu.dtb.walker.power_state.pwrStateResidencyTicks::UNDEFINED     73363000                       # Cumulative time (in ticks) in various power states (Tick)
board.processor.cores.core.mmu.itb.readHits            0                       # read hits (Count)
board.processor.cores.core.mmu.itb.readMisses            0                       # read misses (Count)
board.processor.cores.core.mmu.itb.readAccesses            0                       # read accesses (Count)
board.processor.cores.core.mmu.itb.writeHits            0                       # write hits (Count)
board.processor.cores.core.mmu.itb.writeMisses            0                       # write misses (Count)
board.processor.cores.core.mmu.itb.writeAccesses            0                       # write accesses (Count)
board.processor.cores.core.mmu.itb.hits             0                       # Total TLB (read and write) hits (Count)
board.processor.cores.core.mmu.itb.misses            0                       # Total TLB (read and write) misses (Count)
board.processor.cores.core.mmu.itb.accesses            0                       # Total TLB (read and write) accesses (Count)
board.processor.cores.core.mmu.itb.walker.num_4kb_walks            0                       # Completed page walks with 4KB pages (Count)
board.processor.cores.core.mmu.itb.walker.num_2mb_walks            0                       # Completed page walks with 2MB pages (Count)
board.processor.cores.core.mmu.itb.walker.power_state.pwrStateResidencyTicks::UNDEFINED     73363000                       # Cumulative time (in ticks) in various power states (Tick)
board.processor.cores.core.power_state.pwrStateResidencyTicks::ON     73363000                       # Cumulative time (in ticks) in various power states (Tick)
board.processor.cores.core.thread_0.numInsts            0                       # Number of Instructions committed (Count)
board.processor.cores.core.thread_0.numOps            0                       # Number of Ops committed (Count)
board.processor.cores.core.thread_0.numMemRefs            0                       # Number of Memory References (Count)
board.processor.cores.core.workload.numSyscalls           14                       # Number of system calls (Count)
board.workload.inst.arm                             0                       # number of arm instructions executed (Count)
board.workload.inst.quiesce                         0                       # number of quiesce instructions executed (Count)

---------- End Simulation Statistics   ----------
