
---------- Begin Simulation Statistics ----------
simSeconds                                   0.021684                       # Number of seconds simulated (Second)
simTicks                                  21683671000                       # Number of ticks simulated (Tick)
finalTick                                 21683671000                       # Number of ticks from beginning of simulation (restored from checkpoints and never reset) (Tick)
simFreq                                  1000000000000                       # The number of ticks per simulated second ((Tick/Second))
hostSeconds                                     19.12                       # Real time elapsed on the host (Second)
hostTickRate                               1133888636                       # The number of ticks simulated per host second (ticks/s) ((Tick/Second))
hostMemory                                    2242424                       # Number of bytes of host memory used (Byte)
simInsts                                     12071355                       # Number of instructions simulated (Count)
simOps                                       12071389                       # Number of ops (including micro ops) simulated (Count)
hostInstRate                                   631234                       # Simulator instruction rate (inst/s) ((Count/Second))
hostOpRate                                     631235                       # Simulator op (including micro ops) rate (op/s) ((Count/Second))
board.cache_hierarchy.l1d-cache-0.demandHits::processor.cores.core.data      5120894                       # number of demand (read+write) hits (Count)
board.cache_hierarchy.l1d-cache-0.demandHits::total      5120894                       # number of demand (read+write) hits (Count)
board.cache_hierarchy.l1d-cache-0.overallHits::processor.cores.core.data      5120894                       # number of overall hits (Count)
board.cache_hierarchy.l1d-cache-0.overallHits::total      5120894                       # number of overall hits (Count)
board.cache_hierarchy.l1d-cache-0.demandMisses::processor.cores.core.data         9987                       # number of demand (read+write) misses (Count)
board.cache_hierarchy.l1d-cache-0.demandMisses::total         9987                       # number of demand (read+write) misses (Count)
board.cache_hierarchy.l1d-cache-0.overallMisses::processor.cores.core.data         9987                       # number of overall misses (Count)
board.cache_hierarchy.l1d-cache-0.overallMisses::total         9987                       # number of overall misses (Count)
board.cache_hierarchy.l1d-cache-0.demandMissLatency::processor.cores.core.data    152337000                       # number of demand (read+write) miss ticks (Tick)
board.cache_hierarchy.l1d-cache-0.demandMissLatency::total    152337000                       # number of demand (read+write) miss ticks (Tick)
board.cache_hierarchy.l1d-cache-0.overallMissLatency::processor.cores.core.data    152337000                       # number of overall miss ticks (Tick)
board.cache_hierarchy.l1d-cache-0.overallMissLatency::total    152337000                       # number of overall miss ticks (Tick)
board.cache_hierarchy.l1d-cache-0.demandAccesses::processor.cores.core.data      5130881                       # number of demand (read+write) accesses (Count)
board.cache_hierarchy.l1d-cache-0.demandAccesses::total      5130881                       # number of demand (read+write) accesses (Count)
board.cache_hierarchy.l1d-cache-0.overallAccesses::processor.cores.core.data      5130881                       # number of overall (read+write) accesses (Count)
board.cache_hierarchy.l1d-cache-0.overallAccesses::total      5130881                       # number of overall (read+write) accesses (Count)
board.cache_hierarchy.l1d-cache-0.demandMissRate::processor.cores.core.data     0.001946                       # miss rate for demand accesses (Ratio)
board.cache_hierarchy.l1d-cache-0.demandMissRate::total     0.001946                       # miss rate for demand accesses (Ratio)
board.cache_hierarchy.l1d-cache-0.overallMissRate::processor.cores.core.data     0.001946                       # miss rate for overall accesses (Ratio)
board.cache_hierarchy.l1d-cache-0.overallMissRate::total     0.001946                       # miss rate for overall accesses (Ratio)
board.cache_hierarchy.l1d-cache-0.demandAvgMissLatency::processor.cores.core.data 15253.529588                       # average overall miss latency in ticks ((Tick/Count))
board.cache_hierarchy.l1d-cache-0.demandAvgMissLatency::total 15253.529588                       # average overall miss latency in ticks ((Tick/Count))
board.cache_hierarchy.l1d-cache-0.overallAvgMissLatency::processor.cores.core.data 15253.529588                       # average overall miss latency ((Tick/Count))
board.cache_hierarchy.l1d-cache-0.overallAvgMissLatency::total 15253.529588                       # average overall miss latency ((Tick/Count))
board.cache_hierarchy.l1d-cache-0.blockedCycles::no_mshrs            0                       # number of cycles access was blocked (Cycle)
board.cache_hierarchy.l1d-cache-0.blockedCycles::no_targets            0                       # number of cycles access was blocked (Cycle)
board.cache_hierarchy.l1d-cache-0.blockedCauses::no_mshrs            0                       # number of times access was blocked (Count)
board.cache_hierarchy.l1d-cache-0.blockedCauses::no_targets            0                       # number of times access was blocked (Count)
board.cache_hierarchy.l1d-cache-0.avgBlocked::no_mshrs          nan                       # average number of cycles each access was blocked ((Cycle/Count))
board.cache_hierarchy.l1d-cache-0.avgBlocked::no_targets          nan                       # average number of cycles each access was blocked ((Cycle/Count))
board.cache_hierarchy.l1d-cache-0.writebacks::writebacks        20756                       # number of writebacks (Count)
board.cache_hierarchy.l1d-cache-0.writebacks::total        20756                       # number of writebacks (Count)
board.cache_hierarchy.l1d-cache-0.demandMshrMisses::processor.cores.core.data         9987                       # number of demand (read+write) MSHR misses (Count)
board.cache_hierarchy.l1d-cache-0.demandMshrMisses::total         9987                       # number of demand (read+write) MSHR misses (Count)
board.cache_hierarchy.l1d-cache-0.overallMshrMisses::cache_hierarchy.l1d-cache-0.prefetcher       173464                       # number of overall MSHR misses (Count)
board.cache_hierarchy.l1d-cache-0.overallMshrMisses::processor.cores.core.data         9987                       # number of overall MSHR misses (Count)
board.cache_hierarchy.l1d-cache-0.overallMshrMisses::total       183451                       # number of overall MSHR misses (Count)
board.cache_hierarchy.l1d-cache-0.demandMshrMissLatency::processor.cores.core.data    142350000                       # number of demand (read+write) MSHR miss ticks (Tick)
board.cache_hierarchy.l1d-cache-0.demandMshrMissLatency::total    142350000                       # number of demand (read+write) MSHR miss ticks (Tick)
board.cache_hierarchy.l1d-cache-0.overallMshrMissLatency::cache_hierarchy.l1d-cache-0.prefetcher   2507760337                       # number of overall MSHR miss ticks (Tick)
board.cache_hierarchy.l1d-cache-0.overallMshrMissLatency::processor.cores.core.data    142350000                       # number of overall MSHR miss ticks (Tick)
board.cache_hierarchy.l1d-cache-0.overallMshrMissLatency::total   2650110337                       # number of overall MSHR miss ticks (Tick)
board.cache_hierarchy.l1d-cache-0.demandMshrMissRate::processor.cores.core.data     0.001946                       # mshr miss ratio for demand accesses (Ratio)
board.cache_hierarchy.l1d-cache-0.demandMshrMissRate::total     0.001946                       # mshr miss ratio for demand accesses (Ratio)
board.cache_hierarchy.l1d-cache-0.overallMshrMissRate::cache_hierarchy.l1d-cache-0.prefetcher          inf                       # mshr miss ratio for overall accesses (Ratio)
board.cache_hierarchy.l1d-cache-0.overallMshrMissRate::processor.cores.core.data     0.001946                       # mshr miss ratio for overall accesses (Ratio)
board.cache_hierarchy.l1d-cache-0.overallMshrMissRate::total     0.035754                       # mshr miss ratio for overall accesses (Ratio)
board.cache_hierarchy.l1d-cache-0.demandAvgMshrMissLatency::processor.cores.core.data 14253.529588                       # average overall mshr miss latency ((Tick/Count))
board.cache_hierarchy.l1d-cache-0.demandAvgMshrMissLatency::total 14253.529588                       # average overall mshr miss latency ((Tick/Count))
board.cache_hierarchy.l1d-cache-0.overallAvgMshrMissLatency::cache_hierarchy.l1d-cache-0.prefetcher 14456.949782                       # average overall mshr miss latency ((Tick/Count))
board.cache_hierarchy.l1d-cache-0.overallAvgMshrMissLatency::processor.cores.core.data 14253.529588                       # average overall mshr miss latency ((Tick/Count))
board.cache_hierarchy.l1d-cache-0.overallAvgMshrMissLatency::total 14445.875667                       # average overall mshr miss latency ((Tick/Count))
board.cache_hierarchy.l1d-cache-0.replacements       183198                       # number of replacements (Count)
board.cache_hierarchy.l1d-cache-0.HardPFReq.mshrMisses::cache_hierarchy.l1d-cache-0.prefetcher       173464                       # number of HardPFReq MSHR misses (Count)
board.cache_hierarchy.l1d-cache-0.HardPFReq.mshrMisses::total       173464                       # number of HardPFReq MSHR misses (Count)
board.cache_hierarchy.l1d-cache-0.HardPFReq.mshrMissLatency::cache_hierarchy.l1d-cache-0.prefetcher   2507760337                       # number of HardPFReq MSHR miss ticks (Tick)
board.cache_hierarchy.l1d-cache-0.HardPFReq.mshrMissLatency::total   2507760337                       # number of HardPFReq MSHR miss ticks (Tick)
board.cache_hierarchy.l1d-cache-0.HardPFReq.mshrMissRate::cache_hierarchy.l1d-cache-0.prefetcher          inf                       # mshr miss rate for HardPFReq accesses (Ratio)
board.cache_hierarchy.l1d-cache-0.HardPFReq.mshrMissRate::total          inf                       # mshr miss rate for HardPFReq accesses (Ratio)
board.cache_hierarchy.l1d-cache-0.HardPFReq.avgMshrMissLatency::cache_hierarchy.l1d-cache-0.prefetcher 14456.949782                       # average HardPFReq mshr miss latency ((Tick/Count))
board.cache_hierarchy.l1d-cache-0.HardPFReq.avgMshrMissLatency::total 14456.949782                       # average HardPFReq mshr miss latency ((Tick/Count))
board.cache_hierarchy.l1d-cache-0.LoadLockedReq.hits::processor.cores.core.data           32                       # number of LoadLockedReq hits (Count)
board.cache_hierarchy.l1d-cache-0.LoadLockedReq.hits::total           32                       # number of LoadLockedReq hits (Count)
board.cache_hierarchy.l1d-cache-0.LoadLockedReq.misses::processor.cores.core.data            2                       # number of LoadLockedReq misses (Count)
board.cache_hierarchy.l1d-cache-0.LoadLockedReq.misses::total            2                       # number of LoadLockedReq misses (Count)
board.cache_hierarchy.l1d-cache-0.LoadLockedReq.missLatency::processor.cores.core.data        92000                       # number of LoadLockedReq miss ticks (Tick)
board.cache_hierarchy.l1d-cache-0.LoadLockedReq.missLatency::total        92000                       # number of LoadLockedReq miss ticks (Tick)
board.cache_hierarchy.l1d-cache-0.LoadLockedReq.accesses::processor.cores.core.data           34                       # number of LoadLockedReq accesses(hits+misses) (Count)
board.cache_hierarchy.l1d-cache-0.LoadLockedReq.accesses::total           34                       # number of LoadLockedReq accesses(hits+misses) (Count)
board.cache_hierarchy.l1d-cache-0.LoadLockedReq.missRate::processor.cores.core.data     0.058824                       # miss rate for LoadLockedReq accesses (Ratio)
board.cache_hierarchy.l1d-cache-0.LoadLockedReq.missRate::total     0.058824                       # miss rate for LoadLockedReq accesses (Ratio)
board.cache_hierarchy.l1d-cache-0.LoadLockedReq.avgMissLatency::processor.cores.core.data        46000                       # average LoadLockedReq miss latency ((Tick/Count))
board.cache_hierarchy.l1d-cache-0.LoadLockedReq.avgMissLatency::total        46000                       # average LoadLockedReq miss latency ((Tick/Count))
board.cache_hierarchy.l1d-cache-0.LoadLockedReq.mshrMisses::processor.cores.core.data            2                       # number of LoadLockedReq MSHR misses (Count)
board.cache_hierarchy.l1d-cache-0.LoadLockedReq.mshrMisses::total            2                       # number of LoadLockedReq MSHR misses (Count)
board.cache_hierarchy.l1d-cache-0.LoadLockedReq.mshrMissLatency::processor.cores.core.data        90000                       # number of LoadLockedReq MSHR miss ticks (Tick)
board.cache_hierarchy.l1d-cache-0.LoadLockedReq.mshrMissLatency::total        90000                       # number of LoadLockedReq MSHR miss ticks (Tick)
board.cache_hierarchy.l1d-cache-0.LoadLockedReq.mshrMissRate::processor.cores.core.data     0.058824                       # mshr miss rate for LoadLockedReq accesses (Ratio)
board.cache_hierarchy.l1d-cache-0.LoadLockedReq.mshrMissRate::total     0.058824                       # mshr miss rate for LoadLockedReq accesses (Ratio)
board.cache_hierarchy.l1d-cache-0.LoadLockedReq.avgMshrMissLatency::processor.cores.core.data        45000                       # average LoadLockedReq mshr miss latency ((Tick/Count))
board.cache_hierarchy.l1d-cache-0.LoadLockedReq.avgMshrMissLatency::total        45000                       # average LoadLockedReq mshr miss latency ((Tick/Count))
board.cache_hierarchy.l1d-cache-0.ReadReq.hits::processor.cores.core.data      3135868                       # number of ReadReq hits (Count)
board.cache_hierarchy.l1d-cache-0.ReadReq.hits::total      3135868                       # number of ReadReq hits (Count)
board.cache_hierarchy.l1d-cache-0.ReadReq.misses::processor.cores.core.data         8961                       # number of ReadReq misses (Count)
board.cache_hierarchy.l1d-cache-0.ReadReq.misses::total         8961                       # number of ReadReq misses (Count)
board.cache_hierarchy.l1d-cache-0.ReadReq.missLatency::processor.cores.core.data    133025000                       # number of ReadReq miss ticks (Tick)
board.cache_hierarchy.l1d-cache-0.ReadReq.missLatency::total    133025000                       # number of ReadReq miss ticks (Tick)
board.cache_hierarchy.l1d-cache-0.ReadReq.accesses::processor.cores.core.data      3144829                       # number of ReadReq accesses(hits+misses) (Count)
board.cache_hierarchy.l1d-cache-0.ReadReq.accesses::total      3144829                       # number of ReadReq accesses(hits+misses) (Count)
board.cache_hierarchy.l1d-cache-0.ReadReq.missRate::processor.cores.core.data     0.002849                       # miss rate for ReadReq accesses (Ratio)
board.cache_hierarchy.l1d-cache-0.ReadReq.missRate::total     0.002849                       # miss rate for ReadReq accesses (Ratio)
board.cache_hierarchy.l1d-cache-0.ReadReq.avgMissLatency::processor.cores.core.data 14844.883384                       # average ReadReq miss latency ((Tick/Count))
board.cache_hierarchy.l1d-cache-0.ReadReq.avgMissLatency::total 14844.883384                       # average ReadReq miss latency ((Tick/Count))
board.cache_hierarchy.l1d-cache-0.ReadReq.mshrMisses::processor.cores.core.data         8961                       # number of ReadReq MSHR misses (Count)
board.cache_hierarchy.l1d-cache-0.ReadReq.mshrMisses::total         8961                       # number of ReadReq MSHR misses (Count)
board.cache_hierarchy.l1d-cache-0.ReadReq.mshrMissLatency::processor.cores.core.data    124064000                       # number of ReadReq MSHR miss ticks (Tick)
board.cache_hierarchy.l1d-cache-0.ReadReq.mshrMissLatency::total    124064000                       # number of ReadReq MSHR miss ticks (Tick)
board.cache_hierarchy.l1d-cache-0.ReadReq.mshrMissRate::processor.cores.core.data     0.002849                       # mshr miss rate for ReadReq accesses (Ratio)
board.cache_hierarchy.l1d-cache-0.ReadReq.mshrMissRate::total     0.002849                       # mshr miss rate for ReadReq accesses (Ratio)
board.cache_hierarchy.l1d-cache-0.ReadReq.avgMshrMissLatency::processor.cores.core.data 13844.883384                       # average ReadReq mshr miss latency ((Tick/Count))
board.cache_hierarchy.l1d-cache-0.ReadReq.avgMshrMissLatency::total 13844.883384                       # average ReadReq mshr miss latency ((Tick/Count))
board.cache_hierarchy.l1d-cache-0.StoreCondReq.hits::processor.cores.core.data           34                       # number of StoreCondReq hits (Count)
board.cache_hierarchy.l1d-cache-0.StoreCondReq.hits::total           34                       # number of StoreCondReq hits (Count)
board.cache_hierarchy.l1d-cache-0.StoreCondReq.accesses::processor.cores.core.data           34                       # number of StoreCondReq accesses(hits+misses) (Count)
board.cache_hierarchy.l1d-cache-0.StoreCondReq.accesses::total           34                       # number of StoreCondReq accesses(hits+misses) (Count)
board.cache_hierarchy.l1d-cache-0.SwapReq.hits::processor.cores.core.data           44                       # number of SwapReq hits (Count)
board.cache_hierarchy.l1d-cache-0.SwapReq.hits::total           44                       # number of SwapReq hits (Count)
board.cache_hierarchy.l1d-cache-0.SwapReq.misses::processor.cores.core.data            1                       # number of SwapReq misses (Count)
board.cache_hierarchy.l1d-cache-0.SwapReq.misses::total            1                       # number of SwapReq misses (Count)
board.cache_hierarchy.l1d-cache-0.SwapReq.missLatency::processor.cores.core.data        64000                       # number of SwapReq miss ticks (Tick)
board.cache_hierarchy.l1d-cache-0.SwapReq.missLatency::total        64000                       # number of SwapReq miss ticks (Tick)
board.cache_hierarchy.l1d-cache-0.SwapReq.accesses::processor.cores.core.data           45                       # number of SwapReq accesses(hits+misses) (Count)
board.cache_hierarchy.l1d-cache-0.SwapReq.accesses::total           45                       # number of SwapReq accesses(hits+misses) (Count)
board.cache_hierarchy.l1d-cache-0.SwapReq.missRate::processor.cores.core.data     0.022222                       # miss rate for SwapReq accesses (Ratio)
board.cache_hierarchy.l1d-cache-0.SwapReq.missRate::total     0.022222                       # miss rate for SwapReq accesses (Ratio)
board.cache_hierarchy.l1d-cache-0.SwapReq.avgMissLatency::processor.cores.core.data        64000                       # average SwapReq miss latency ((Tick/Count))
board.cache_hierarchy.l1d-cache-0.SwapReq.avgMissLatency::total        64000                       # average SwapReq miss latency ((Tick/Count))
board.cache_hierarchy.l1d-cache-0.SwapReq.mshrMisses::processor.cores.core.data            1                       # number of SwapReq MSHR misses (Count)
board.cache_hierarchy.l1d-cache-0.SwapReq.mshrMisses::total            1                       # number of SwapReq MSHR misses (Count)
board.cache_hierarchy.l1d-cache-0.SwapReq.mshrMissLatency::processor.cores.core.data        63000                       # number of SwapReq MSHR miss ticks (Tick)
board.cache_hierarchy.l1d-cache-0.SwapReq.mshrMissLatency::total        63000                       # number of SwapReq MSHR miss ticks (Tick)
board.cache_hierarchy.l1d-cache-0.SwapReq.mshrMissRate::processor.cores.core.data     0.022222                       # mshr miss rate for SwapReq accesses (Ratio)
board.cache_hierarchy.l1d-cache-0.SwapReq.mshrMissRate::total     0.022222                       # mshr miss rate for SwapReq accesses (Ratio)
board.cache_hierarchy.l1d-cache-0.SwapReq.avgMshrMissLatency::processor.cores.core.data        63000                       # average SwapReq mshr miss latency ((Tick/Count))
board.cache_hierarchy.l1d-cache-0.SwapReq.avgMshrMissLatency::total        63000                       # average SwapReq mshr miss latency ((Tick/Count))
board.cache_hierarchy.l1d-cache-0.WriteReq.hits::processor.cores.core.data      1985026                       # number of WriteReq hits (Count)
board.cache_hierarchy.l1d-cache-0.WriteReq.hits::total      1985026                       # number of WriteReq hits (Count)
board.cache_hierarchy.l1d-cache-0.WriteReq.misses::processor.cores.core.data         1026                       # number of WriteReq misses (Count)
board.cache_hierarchy.l1d-cache-0.WriteReq.misses::total         1026                       # number of WriteReq misses (Count)
board.cache_hierarchy.l1d-cache-0.WriteReq.missLatency::processor.cores.core.data     19312000                       # number of WriteReq miss ticks (Tick)
board.cache_hierarchy.l1d-cache-0.WriteReq.missLatency::total     19312000                       # number of WriteReq miss ticks (Tick)
board.cache_hierarchy.l1d-cache-0.WriteReq.accesses::processor.cores.core.data      1986052                       # number of WriteReq accesses(hits+misses) (Count)
board.cache_hierarchy.l1d-cache-0.WriteReq.accesses::total      1986052                       # number of WriteReq accesses(hits+misses) (Count)
board.cache_hierarchy.l1d-cache-0.WriteReq.missRate::processor.cores.core.data     0.000517                       # miss rate for WriteReq accesses (Ratio)
board.cache_hierarchy.l1d-cache-0.WriteReq.missRate::total     0.000517                       # miss rate for WriteReq accesses (Ratio)
board.cache_hierarchy.l1d-cache-0.WriteReq.avgMissLatency::processor.cores.core.data 18822.612086                       # average WriteReq miss latency ((Tick/Count))
board.cache_hierarchy.l1d-cache-0.WriteReq.avgMissLatency::total 18822.612086                       # average WriteReq miss latency ((Tick/Count))
board.cache_hierarchy.l1d-cache-0.WriteReq.mshrMisses::processor.cores.core.data         1026                       # number of WriteReq MSHR misses (Count)
board.cache_hierarchy.l1d-cache-0.WriteReq.mshrMisses::total         1026                       # number of WriteReq MSHR misses (Count)
board.cache_hierarchy.l1d-cache-0.WriteReq.mshrMissLatency::processor.cores.core.data     18286000                       # number of WriteReq MSHR miss ticks (Tick)
board.cache_hierarchy.l1d-cache-0.WriteReq.mshrMissLatency::total     18286000                       # number of WriteReq MSHR miss ticks (Tick)
board.cache_hierarchy.l1d-cache-0.WriteReq.mshrMissRate::processor.cores.core.data     0.000517                       # mshr miss rate for WriteReq accesses (Ratio)
board.cache_hierarchy.l1d-cache-0.WriteReq.mshrMissRate::total     0.000517                       # mshr miss rate for WriteReq accesses (Ratio)
board.cache_hierarchy.l1d-cache-0.WriteReq.avgMshrMissLatency::processor.cores.core.data 17822.612086                       # average WriteReq mshr miss latency ((Tick/Count))
board.cache_hierarchy.l1d-cache-0.WriteReq.avgMshrMissLatency::total 17822.612086                       # average WriteReq mshr miss latency ((Tick/Count))
board.cache_hierarchy.l1d-cache-0.power_state.pwrStateResidencyTicks::UNDEFINED  21683671000                       # Cumulative time (in ticks) in various power states (Tick)
board.cache_hierarchy.l1d-cache-0.prefetcher.demandMshrMisses         9987                       # demands not covered by prefetchs (Count)
board.cache_hierarchy.l1d-cache-0.prefetcher.pfIssued       687743                       # number of hwpf issued (Count)
board.cache_hierarchy.l1d-cache-0.prefetcher.pfUnused         2567                       # number of HardPF blocks evicted w/o reference (Count)
board.cache_hierarchy.l1d-cache-0.prefetcher.pfUseful       170891                       # number of useful prefetch (Count)
board.cache_hierarchy.l1d-cache-0.prefetcher.pfUsefulButMiss            0                       # number of hit on prefetch but cache block is not in an usable state (Count)
board.cache_hierarchy.l1d-cache-0.prefetcher.accuracy     0.248481                       # accuracy of the prefetcher (Count)
board.cache_hierarchy.l1d-cache-0.prefetcher.coverage     0.944786                       # coverage brought by this prefetcher (Count)
board.cache_hierarchy.l1d-cache-0.prefetcher.pfHitInCache       514279                       # number of prefetches hitting in cache (Count)
board.cache_hierarchy.l1d-cache-0.prefetcher.pfHitInMSHR            0                       # number of prefetches hitting in a MSHR (Count)
board.cache_hierarchy.l1d-cache-0.prefetcher.pfHitInWB            0                       # number of prefetches hit in the Write Buffer (Count)
board.cache_hierarchy.l1d-cache-0.prefetcher.pfLate       514279                       # number of late prefetches (hitting in cache, MSHR or WB) (Count)
board.cache_hierarchy.l1d-cache-0.prefetcher.pfIdentified       687743                       # number of prefetch candidates identified (Count)
board.cache_hierarchy.l1d-cache-0.prefetcher.pfBufferHit            0                       # number of redundant prefetches already in prefetch queue (Count)
board.cache_hierarchy.l1d-cache-0.prefetcher.pfInCache            0                       # number of redundant prefetches already in cache/mshr dropped (Count)
board.cache_hierarchy.l1d-cache-0.prefetcher.pfRemovedDemand            0                       # number of prefetches dropped due to a demand for the same address (Count)
board.cache_hierarchy.l1d-cache-0.prefetcher.pfRemovedFull            0                       # number of prefetches dropped due to prefetch queue size (Count)
board.cache_hierarchy.l1d-cache-0.prefetcher.pfSpanPage        25001                       # number of prefetches that crossed the page (Count)
board.cache_hierarchy.l1d-cache-0.prefetcher.pfUsefulSpanPage        25001                       # number of prefetches that is useful and crossed the page (Count)
board.cache_hierarchy.l1d-cache-0.prefetcher.power_state.pwrStateResidencyTicks::UNDEFINED  21683671000                       # Cumulative time (in ticks) in various power states (Tick)
board.cache_hierarchy.l1d-cache-0.tags.tagsInUse   255.753780                       # Average ticks per tags in use ((Tick/Count))
board.cache_hierarchy.l1d-cache-0.tags.totalRefs      5304458                       # Total number of references to valid blocks. (Count)
board.cache_hierarchy.l1d-cache-0.tags.sampledRefs       183454                       # Sample count of references to valid blocks. (Count)
board.cache_hierarchy.l1d-cache-0.tags.avgRefs    28.914376                       # Average number of references to valid blocks. ((Count/Count))
board.cache_hierarchy.l1d-cache-0.tags.warmupTick       233000                       # The tick when the warmup percentage was hit. (Tick)
board.cache_hierarchy.l1d-cache-0.tags.occupancies::cache_hierarchy.l1d-cache-0.prefetcher   238.401451                       # Average occupied blocks per tick, per requestor ((Count/Tick))
board.cache_hierarchy.l1d-cache-0.tags.occupancies::processor.cores.core.data    17.352329                       # Average occupied blocks per tick, per requestor ((Count/Tick))
board.cache_hierarchy.l1d-cache-0.tags.avgOccs::cache_hierarchy.l1d-cache-0.prefetcher     0.931256                       # Average percentage of cache occupancy ((Ratio/Tick))
board.cache_hierarchy.l1d-cache-0.tags.avgOccs::processor.cores.core.data     0.067783                       # Average percentage of cache occupancy ((Ratio/Tick))
board.cache_hierarchy.l1d-cache-0.tags.avgOccs::total     0.999038                       # Average percentage of cache occupancy ((Ratio/Tick))
board.cache_hierarchy.l1d-cache-0.tags.occupanciesTaskId::1022          172                       # Occupied blocks per task id (Count)
board.cache_hierarchy.l1d-cache-0.tags.occupanciesTaskId::1024           84                       # Occupied blocks per task id (Count)
board.cache_hierarchy.l1d-cache-0.tags.ageTaskId_1022::1          169                       # Occupied blocks per task id, per block age (Count)
board.cache_hierarchy.l1d-cache-0.tags.ageTaskId_1022::4            3                       # Occupied blocks per task id, per block age (Count)
board.cache_hierarchy.l1d-cache-0.tags.ageTaskId_1024::0           32                       # Occupied blocks per task id, per block age (Count)
board.cache_hierarchy.l1d-cache-0.tags.ageTaskId_1024::1           49                       # Occupied blocks per task id, per block age (Count)
board.cache_hierarchy.l1d-cache-0.tags.ageTaskId_1024::4            3                       # Occupied blocks per task id, per block age (Count)
board.cache_hierarchy.l1d-cache-0.tags.ratioOccsTaskId::1022     0.671875                       # Ratio of occupied blocks and all blocks, per task id (Ratio)
board.cache_hierarchy.l1d-cache-0.tags.ratioOccsTaskId::1024     0.328125                       # Ratio of occupied blocks and all blocks, per task id (Ratio)
board.cache_hierarchy.l1d-cache-0.tags.tagAccesses     41231406                       # Number of tag accesses (Count)
board.cache_hierarchy.l1d-cache-0.tags.dataAccesses     41231406                       # Number of data accesses (Count)
board.cache_hierarchy.l1d-cache-0.tags.power_state.pwrStateResidencyTicks::UNDEFINED  21683671000                       # Cumulative time (in ticks) in various power states (Tick)
board.cache_hierarchy.l1i-cache-0.demandHits::processor.cores.core.inst     16385867                       # number of demand (read+write) hits (Count)
board.cache_hierarchy.l1i-cache-0.demandHits::total     16385867                       # number of demand (read+write) hits (Count)
board.cache_hierarchy.l1i-cache-0.overallHits::processor.cores.core.inst     16385867                       # number of overall hits (Count)
board.cache_hierarchy.l1i-cache-0.overallHits::total     16385867                       # number of overall hits (Count)
board.cache_hierarchy.l1i-cache-0.demandMisses::processor.cores.core.inst          343                       # number of demand (read+write) misses (Count)
board.cache_hierarchy.l1i-cache-0.demandMisses::total          343                       # number of demand (read+write) misses (Count)
board.cache_hierarchy.l1i-cache-0.overallMisses::processor.cores.core.inst          343                       # number of overall misses (Count)
board.cache_hierarchy.l1i-cache-0.overallMisses::total          343                       # number of overall misses (Count)
board.cache_hierarchy.l1i-cache-0.demandMissLatency::processor.cores.core.inst     23855000                       # number of demand (read+write) miss ticks (Tick)
board.cache_hierarchy.l1i-cache-0.demandMissLatency::total     23855000                       # number of demand (read+write) miss ticks (Tick)
board.cache_hierarchy.l1i-cache-0.overallMissLatency::processor.cores.core.inst     23855000                       # number of overall miss ticks (Tick)
board.cache_hierarchy.l1i-cache-0.overallMissLatency::total     23855000                       # number of overall miss ticks (Tick)
board.cache_hierarchy.l1i-cache-0.demandAccesses::processor.cores.core.inst     16386210                       # number of demand (read+write) accesses (Count)
board.cache_hierarchy.l1i-cache-0.demandAccesses::total     16386210                       # number of demand (read+write) accesses (Count)
board.cache_hierarchy.l1i-cache-0.overallAccesses::processor.cores.core.inst     16386210                       # number of overall (read+write) accesses (Count)
board.cache_hierarchy.l1i-cache-0.overallAccesses::total     16386210                       # number of overall (read+write) accesses (Count)
board.cache_hierarchy.l1i-cache-0.demandMissRate::processor.cores.core.inst     0.000021                       # miss rate for demand accesses (Ratio)
board.cache_hierarchy.l1i-cache-0.demandMissRate::total     0.000021                       # miss rate for demand accesses (Ratio)
board.cache_hierarchy.l1i-cache-0.overallMissRate::processor.cores.core.inst     0.000021                       # miss rate for overall accesses (Ratio)
board.cache_hierarchy.l1i-cache-0.overallMissRate::total     0.000021                       # miss rate for overall accesses (Ratio)
board.cache_hierarchy.l1i-cache-0.demandAvgMissLatency::processor.cores.core.inst 69548.104956                       # average overall miss latency in ticks ((Tick/Count))
board.cache_hierarchy.l1i-cache-0.demandAvgMissLatency::total 69548.104956                       # average overall miss latency in ticks ((Tick/Count))
board.cache_hierarchy.l1i-cache-0.overallAvgMissLatency::processor.cores.core.inst 69548.104956                       # average overall miss latency ((Tick/Count))
board.cache_hierarchy.l1i-cache-0.overallAvgMissLatency::total 69548.104956                       # average overall miss latency ((Tick/Count))
board.cache_hierarchy.l1i-cache-0.blockedCycles::no_mshrs            0                       # number of cycles access was blocked (Cycle)
board.cache_hierarchy.l1i-cache-0.blockedCycles::no_targets            0                       # number of cycles access was blocked (Cycle)
board.cache_hierarchy.l1i-cache-0.blockedCauses::no_mshrs            0                       # number of times access was blocked (Count)
board.cache_hierarchy.l1i-cache-0.blockedCauses::no_targets            0                       # number of times access was blocked (Count)
board.cache_hierarchy.l1i-cache-0.avgBlocked::no_mshrs          nan                       # average number of cycles each access was blocked ((Cycle/Count))
board.cache_hierarchy.l1i-cache-0.avgBlocked::no_targets          nan                       # average number of cycles each access was blocked ((Cycle/Count))
board.cache_hierarchy.l1i-cache-0.writebacks::writebacks           91                       # number of writebacks (Count)
board.cache_hierarchy.l1i-cache-0.writebacks::total           91                       # number of writebacks (Count)
board.cache_hierarchy.l1i-cache-0.demandMshrMisses::processor.cores.core.inst          343                       # number of demand (read+write) MSHR misses (Count)
board.cache_hierarchy.l1i-cache-0.demandMshrMisses::total          343                       # number of demand (read+write) MSHR misses (Count)
board.cache_hierarchy.l1i-cache-0.overallMshrMisses::processor.cores.core.inst          343                       # number of overall MSHR misses (Count)
board.cache_hierarchy.l1i-cache-0.overallMshrMisses::total          343                       # number of overall MSHR misses (Count)
board.cache_hierarchy.l1i-cache-0.demandMshrMissLatency::processor.cores.core.inst     23512000                       # number of demand (read+write) MSHR miss ticks (Tick)
board.cache_hierarchy.l1i-cache-0.demandMshrMissLatency::total     23512000                       # number of demand (read+write) MSHR miss ticks (Tick)
board.cache_hierarchy.l1i-cache-0.overallMshrMissLatency::processor.cores.core.inst     23512000                       # number of overall MSHR miss ticks (Tick)
board.cache_hierarchy.l1i-cache-0.overallMshrMissLatency::total     23512000                       # number of overall MSHR miss ticks (Tick)
board.cache_hierarchy.l1i-cache-0.demandMshrMissRate::processor.cores.core.inst     0.000021                       # mshr miss ratio for demand accesses (Ratio)
board.cache_hierarchy.l1i-cache-0.demandMshrMissRate::total     0.000021                       # mshr miss ratio for demand accesses (Ratio)
board.cache_hierarchy.l1i-cache-0.overallMshrMissRate::processor.cores.core.inst     0.000021                       # mshr miss ratio for overall accesses (Ratio)
board.cache_hierarchy.l1i-cache-0.overallMshrMissRate::total     0.000021                       # mshr miss ratio for overall accesses (Ratio)
board.cache_hierarchy.l1i-cache-0.demandAvgMshrMissLatency::processor.cores.core.inst 68548.104956                       # average overall mshr miss latency ((Tick/Count))
board.cache_hierarchy.l1i-cache-0.demandAvgMshrMissLatency::total 68548.104956                       # average overall mshr miss latency ((Tick/Count))
board.cache_hierarchy.l1i-cache-0.overallAvgMshrMissLatency::processor.cores.core.inst 68548.104956                       # average overall mshr miss latency ((Tick/Count))
board.cache_hierarchy.l1i-cache-0.overallAvgMshrMissLatency::total 68548.104956                       # average overall mshr miss latency ((Tick/Count))
board.cache_hierarchy.l1i-cache-0.replacements           91                       # number of replacements (Count)
board.cache_hierarchy.l1i-cache-0.ReadReq.hits::processor.cores.core.inst     16385867                       # number of ReadReq hits (Count)
board.cache_hierarchy.l1i-cache-0.ReadReq.hits::total     16385867                       # number of ReadReq hits (Count)
board.cache_hierarchy.l1i-cache-0.ReadReq.misses::processor.cores.core.inst          343                       # number of ReadReq misses (Count)
board.cache_hierarchy.l1i-cache-0.ReadReq.misses::total          343                       # number of ReadReq misses (Count)
board.cache_hierarchy.l1i-cache-0.ReadReq.missLatency::processor.cores.core.inst     23855000                       # number of ReadReq miss ticks (Tick)
board.cache_hierarchy.l1i-cache-0.ReadReq.missLatency::total     23855000                       # number of ReadReq miss ticks (Tick)
board.cache_hierarchy.l1i-cache-0.ReadReq.accesses::processor.cores.core.inst     16386210                       # number of ReadReq accesses(hits+misses) (Count)
board.cache_hierarchy.l1i-cache-0.ReadReq.accesses::total     16386210                       # number of ReadReq accesses(hits+misses) (Count)
board.cache_hierarchy.l1i-cache-0.ReadReq.missRate::processor.cores.core.inst     0.000021                       # miss rate for ReadReq accesses (Ratio)
board.cache_hierarchy.l1i-cache-0.ReadReq.missRate::total     0.000021                       # miss rate for ReadReq accesses (Ratio)
board.cache_hierarchy.l1i-cache-0.ReadReq.avgMissLatency::processor.cores.core.inst 69548.104956                       # average ReadReq miss latency ((Tick/Count))
board.cache_hierarchy.l1i-cache-0.ReadReq.avgMissLatency::total 69548.104956                       # average ReadReq miss latency ((Tick/Count))
board.cache_hierarchy.l1i-cache-0.ReadReq.mshrMisses::processor.cores.core.inst          343                       # number of ReadReq MSHR misses (Count)
board.cache_hierarchy.l1i-cache-0.ReadReq.mshrMisses::total          343                       # number of ReadReq MSHR misses (Count)
board.cache_hierarchy.l1i-cache-0.ReadReq.mshrMissLatency::processor.cores.core.inst     23512000                       # number of ReadReq MSHR miss ticks (Tick)
board.cache_hierarchy.l1i-cache-0.ReadReq.mshrMissLatency::total     23512000                       # number of ReadReq MSHR miss ticks (Tick)
board.cache_hierarchy.l1i-cache-0.ReadReq.mshrMissRate::processor.cores.core.inst     0.000021                       # mshr miss rate for ReadReq accesses (Ratio)
board.cache_hierarchy.l1i-cache-0.ReadReq.mshrMissRate::total     0.000021                       # mshr miss rate for ReadReq accesses (Ratio)
board.cache_hierarchy.l1i-cache-0.ReadReq.avgMshrMissLatency::processor.cores.core.inst 68548.104956                       # average ReadReq mshr miss latency ((Tick/Count))
board.cache_hierarchy.l1i-cache-0.ReadReq.avgMshrMissLatency::total 68548.104956                       # average ReadReq mshr miss latency ((Tick/Count))
board.cache_hierarchy.l1i-cache-0.power_state.pwrStateResidencyTicks::UNDEFINED  21683671000                       # Cumulative time (in ticks) in various power states (Tick)
board.cache_hierarchy.l1i-cache-0.prefetcher.demandMshrMisses          343                       # demands not covered by prefetchs (Count)
board.cache_hierarchy.l1i-cache-0.prefetcher.pfIssued            0                       # number of hwpf issued (Count)
board.cache_hierarchy.l1i-cache-0.prefetcher.pfUseful            0                       # number of useful prefetch (Count)
board.cache_hierarchy.l1i-cache-0.prefetcher.pfUsefulButMiss            0                       # number of hit on prefetch but cache block is not in an usable state (Count)
board.cache_hierarchy.l1i-cache-0.prefetcher.accuracy          nan                       # accuracy of the prefetcher (Count)
board.cache_hierarchy.l1i-cache-0.prefetcher.coverage            0                       # coverage brought by this prefetcher (Count)
board.cache_hierarchy.l1i-cache-0.prefetcher.pfHitInCache            0                       # number of prefetches hitting in cache (Count)
board.cache_hierarchy.l1i-cache-0.prefetcher.pfHitInMSHR            0                       # number of prefetches hitting in a MSHR (Count)
board.cache_hierarchy.l1i-cache-0.prefetcher.pfHitInWB            0                       # number of prefetches hit in the Write Buffer (Count)
board.cache_hierarchy.l1i-cache-0.prefetcher.pfLate            0                       # number of late prefetches (hitting in cache, MSHR or WB) (Count)
board.cache_hierarchy.l1i-cache-0.prefetcher.pfIdentified            0                       # number of prefetch candidates identified (Count)
board.cache_hierarchy.l1i-cache-0.prefetcher.pfBufferHit            0                       # number of redundant prefetches already in prefetch queue (Count)
board.cache_hierarchy.l1i-cache-0.prefetcher.pfInCache            0                       # number of redundant prefetches already in cache/mshr dropped (Count)
board.cache_hierarchy.l1i-cache-0.prefetcher.pfRemovedDemand            0                       # number of prefetches dropped due to a demand for the same address (Count)
board.cache_hierarchy.l1i-cache-0.prefetcher.pfRemovedFull            0                       # number of prefetches dropped due to prefetch queue size (Count)
board.cache_hierarchy.l1i-cache-0.prefetcher.pfSpanPage            0                       # number of prefetches that crossed the page (Count)
board.cache_hierarchy.l1i-cache-0.prefetcher.pfUsefulSpanPage            0                       # number of prefetches that is useful and crossed the page (Count)
board.cache_hierarchy.l1i-cache-0.prefetcher.power_state.pwrStateResidencyTicks::UNDEFINED  21683671000                       # Cumulative time (in ticks) in various power states (Tick)
board.cache_hierarchy.l1i-cache-0.tags.tagsInUse   244.841198                       # Average ticks per tags in use ((Tick/Count))
board.cache_hierarchy.l1i-cache-0.tags.totalRefs     16386210                       # Total number of references to valid blocks. (Count)
board.cache_hierarchy.l1i-cache-0.tags.sampledRefs          343                       # Sample count of references to valid blocks. (Count)
board.cache_hierarchy.l1i-cache-0.tags.avgRefs 47773.206997                       # Average number of references to valid blocks. ((Count/Count))
board.cache_hierarchy.l1i-cache-0.tags.warmupTick        79000                       # The tick when the warmup percentage was hit. (Tick)
board.cache_hierarchy.l1i-cache-0.tags.occupancies::processor.cores.core.inst   244.841198                       # Average occupied blocks per tick, per requestor ((Count/Tick))
board.cache_hierarchy.l1i-cache-0.tags.avgOccs::processor.cores.core.inst     0.956411                       # Average percentage of cache occupancy ((Ratio/Tick))
board.cache_hierarchy.l1i-cache-0.tags.avgOccs::total     0.956411                       # Average percentage of cache occupancy ((Ratio/Tick))
board.cache_hierarchy.l1i-cache-0.tags.occupanciesTaskId::1024          252                       # Occupied blocks per task id (Count)
board.cache_hierarchy.l1i-cache-0.tags.ageTaskId_1024::0           43                       # Occupied blocks per task id, per block age (Count)
board.cache_hierarchy.l1i-cache-0.tags.ageTaskId_1024::4          209                       # Occupied blocks per task id, per block age (Count)
board.cache_hierarchy.l1i-cache-0.tags.ratioOccsTaskId::1024     0.984375                       # Ratio of occupied blocks and all blocks, per task id (Ratio)
board.cache_hierarchy.l1i-cache-0.tags.tagAccesses    131090023                       # Number of tag accesses (Count)
board.cache_hierarchy.l1i-cache-0.tags.dataAccesses    131090023                       # Number of data accesses (Count)
board.cache_hierarchy.l1i-cache-0.tags.power_state.pwrStateResidencyTicks::UNDEFINED  21683671000                       # Cumulative time (in ticks) in various power states (Tick)
board.cache_hierarchy.l2-cache-0.demandHits::cache_hierarchy.l1d-cache-0.prefetcher       173424                       # number of demand (read+write) hits (Count)
board.cache_hierarchy.l2-cache-0.demandHits::processor.cores.core.data         9778                       # number of demand (read+write) hits (Count)
board.cache_hierarchy.l2-cache-0.demandHits::total       183202                       # number of demand (read+write) hits (Count)
board.cache_hierarchy.l2-cache-0.overallHits::cache_hierarchy.l1d-cache-0.prefetcher       173424                       # number of overall hits (Count)
board.cache_hierarchy.l2-cache-0.overallHits::processor.cores.core.data         9778                       # number of overall hits (Count)
board.cache_hierarchy.l2-cache-0.overallHits::total       183202                       # number of overall hits (Count)
board.cache_hierarchy.l2-cache-0.demandMisses::cache_hierarchy.l1d-cache-0.prefetcher           40                       # number of demand (read+write) misses (Count)
board.cache_hierarchy.l2-cache-0.demandMisses::processor.cores.core.inst          343                       # number of demand (read+write) misses (Count)
board.cache_hierarchy.l2-cache-0.demandMisses::processor.cores.core.data          212                       # number of demand (read+write) misses (Count)
board.cache_hierarchy.l2-cache-0.demandMisses::total          595                       # number of demand (read+write) misses (Count)
board.cache_hierarchy.l2-cache-0.overallMisses::cache_hierarchy.l1d-cache-0.prefetcher           40                       # number of overall misses (Count)
board.cache_hierarchy.l2-cache-0.overallMisses::processor.cores.core.inst          343                       # number of overall misses (Count)
board.cache_hierarchy.l2-cache-0.overallMisses::processor.cores.core.data          212                       # number of overall misses (Count)
board.cache_hierarchy.l2-cache-0.overallMisses::total          595                       # number of overall misses (Count)
board.cache_hierarchy.l2-cache-0.demandMissLatency::cache_hierarchy.l1d-cache-0.prefetcher      2797000                       # number of demand (read+write) miss ticks (Tick)
board.cache_hierarchy.l2-cache-0.demandMissLatency::processor.cores.core.inst     22820000                       # number of demand (read+write) miss ticks (Tick)
board.cache_hierarchy.l2-cache-0.demandMissLatency::processor.cores.core.data     14961000                       # number of demand (read+write) miss ticks (Tick)
board.cache_hierarchy.l2-cache-0.demandMissLatency::total     40578000                       # number of demand (read+write) miss ticks (Tick)
board.cache_hierarchy.l2-cache-0.overallMissLatency::cache_hierarchy.l1d-cache-0.prefetcher      2797000                       # number of overall miss ticks (Tick)
board.cache_hierarchy.l2-cache-0.overallMissLatency::processor.cores.core.inst     22820000                       # number of overall miss ticks (Tick)
board.cache_hierarchy.l2-cache-0.overallMissLatency::processor.cores.core.data     14961000                       # number of overall miss ticks (Tick)
board.cache_hierarchy.l2-cache-0.overallMissLatency::total     40578000                       # number of overall miss ticks (Tick)
board.cache_hierarchy.l2-cache-0.demandAccesses::cache_hierarchy.l1d-cache-0.prefetcher       173464                       # number of demand (read+write) accesses (Count)
board.cache_hierarchy.l2-cache-0.demandAccesses::processor.cores.core.inst          343                       # number of demand (read+write) accesses (Count)
board.cache_hierarchy.l2-cache-0.demandAccesses::processor.cores.core.data         9990                       # number of demand (read+write) accesses (Count)
board.cache_hierarchy.l2-cache-0.demandAccesses::total       183797                       # number of demand (read+write) accesses (Count)
board.cache_hierarchy.l2-cache-0.overallAccesses::cache_hierarchy.l1d-cache-0.prefetcher       173464                       # number of overall (read+write) accesses (Count)
board.cache_hierarchy.l2-cache-0.overallAccesses::processor.cores.core.inst          343                       # number of overall (read+write) accesses (Count)
board.cache_hierarchy.l2-cache-0.overallAccesses::processor.cores.core.data         9990                       # number of overall (read+write) accesses (Count)
board.cache_hierarchy.l2-cache-0.overallAccesses::total       183797                       # number of overall (read+write) accesses (Count)
board.cache_hierarchy.l2-cache-0.demandMissRate::cache_hierarchy.l1d-cache-0.prefetcher     0.000231                       # miss rate for demand accesses (Ratio)
board.cache_hierarchy.l2-cache-0.demandMissRate::processor.cores.core.inst            1                       # miss rate for demand accesses (Ratio)
board.cache_hierarchy.l2-cache-0.demandMissRate::processor.cores.core.data     0.021221                       # miss rate for demand accesses (Ratio)
board.cache_hierarchy.l2-cache-0.demandMissRate::total     0.003237                       # miss rate for demand accesses (Ratio)
board.cache_hierarchy.l2-cache-0.overallMissRate::cache_hierarchy.l1d-cache-0.prefetcher     0.000231                       # miss rate for overall accesses (Ratio)
board.cache_hierarchy.l2-cache-0.overallMissRate::processor.cores.core.inst            1                       # miss rate for overall accesses (Ratio)
board.cache_hierarchy.l2-cache-0.overallMissRate::processor.cores.core.data     0.021221                       # miss rate for overall accesses (Ratio)
board.cache_hierarchy.l2-cache-0.overallMissRate::total     0.003237                       # miss rate for overall accesses (Ratio)
board.cache_hierarchy.l2-cache-0.demandAvgMissLatency::cache_hierarchy.l1d-cache-0.prefetcher        69925                       # average overall miss latency in ticks ((Tick/Count))
board.cache_hierarchy.l2-cache-0.demandAvgMissLatency::processor.cores.core.inst 66530.612245                       # average overall miss latency in ticks ((Tick/Count))
board.cache_hierarchy.l2-cache-0.demandAvgMissLatency::processor.cores.core.data 70570.754717                       # average overall miss latency in ticks ((Tick/Count))
board.cache_hierarchy.l2-cache-0.demandAvgMissLatency::total 68198.319328                       # average overall miss latency in ticks ((Tick/Count))
board.cache_hierarchy.l2-cache-0.overallAvgMissLatency::cache_hierarchy.l1d-cache-0.prefetcher        69925                       # average overall miss latency ((Tick/Count))
board.cache_hierarchy.l2-cache-0.overallAvgMissLatency::processor.cores.core.inst 66530.612245                       # average overall miss latency ((Tick/Count))
board.cache_hierarchy.l2-cache-0.overallAvgMissLatency::processor.cores.core.data 70570.754717                       # average overall miss latency ((Tick/Count))
board.cache_hierarchy.l2-cache-0.overallAvgMissLatency::total 68198.319328                       # average overall miss latency ((Tick/Count))
board.cache_hierarchy.l2-cache-0.blockedCycles::no_mshrs            0                       # number of cycles access was blocked (Cycle)
board.cache_hierarchy.l2-cache-0.blockedCycles::no_targets            0                       # number of cycles access was blocked (Cycle)
board.cache_hierarchy.l2-cache-0.blockedCauses::no_mshrs            0                       # number of times access was blocked (Count)
board.cache_hierarchy.l2-cache-0.blockedCauses::no_targets            0                       # number of times access was blocked (Count)
board.cache_hierarchy.l2-cache-0.avgBlocked::no_mshrs          nan                       # average number of cycles each access was blocked ((Cycle/Count))
board.cache_hierarchy.l2-cache-0.avgBlocked::no_targets          nan                       # average number of cycles each access was blocked ((Cycle/Count))
board.cache_hierarchy.l2-cache-0.demandMshrHits::cache_hierarchy.l1d-cache-0.prefetcher           28                       # number of demand (read+write) MSHR hits (Count)
board.cache_hierarchy.l2-cache-0.demandMshrHits::total           28                       # number of demand (read+write) MSHR hits (Count)
board.cache_hierarchy.l2-cache-0.overallMshrHits::cache_hierarchy.l1d-cache-0.prefetcher           28                       # number of overall MSHR hits (Count)
board.cache_hierarchy.l2-cache-0.overallMshrHits::total           28                       # number of overall MSHR hits (Count)
board.cache_hierarchy.l2-cache-0.demandMshrMisses::cache_hierarchy.l1d-cache-0.prefetcher           12                       # number of demand (read+write) MSHR misses (Count)
board.cache_hierarchy.l2-cache-0.demandMshrMisses::processor.cores.core.inst          343                       # number of demand (read+write) MSHR misses (Count)
board.cache_hierarchy.l2-cache-0.demandMshrMisses::processor.cores.core.data          212                       # number of demand (read+write) MSHR misses (Count)
board.cache_hierarchy.l2-cache-0.demandMshrMisses::total          567                       # number of demand (read+write) MSHR misses (Count)
board.cache_hierarchy.l2-cache-0.overallMshrMisses::cache_hierarchy.l1d-cache-0.prefetcher           12                       # number of overall MSHR misses (Count)
board.cache_hierarchy.l2-cache-0.overallMshrMisses::cache_hierarchy.l2-cache-0.prefetcher          357                       # number of overall MSHR misses (Count)
board.cache_hierarchy.l2-cache-0.overallMshrMisses::processor.cores.core.inst          343                       # number of overall MSHR misses (Count)
board.cache_hierarchy.l2-cache-0.overallMshrMisses::processor.cores.core.data          212                       # number of overall MSHR misses (Count)
board.cache_hierarchy.l2-cache-0.overallMshrMisses::total          924                       # number of overall MSHR misses (Count)
board.cache_hierarchy.l2-cache-0.demandMshrMissLatency::cache_hierarchy.l1d-cache-0.prefetcher      1165000                       # number of demand (read+write) MSHR miss ticks (Tick)
board.cache_hierarchy.l2-cache-0.demandMshrMissLatency::processor.cores.core.inst     22477000                       # number of demand (read+write) MSHR miss ticks (Tick)
board.cache_hierarchy.l2-cache-0.demandMshrMissLatency::processor.cores.core.data     14749000                       # number of demand (read+write) MSHR miss ticks (Tick)
board.cache_hierarchy.l2-cache-0.demandMshrMissLatency::total     38391000                       # number of demand (read+write) MSHR miss ticks (Tick)
board.cache_hierarchy.l2-cache-0.overallMshrMissLatency::cache_hierarchy.l1d-cache-0.prefetcher      1165000                       # number of overall MSHR miss ticks (Tick)
board.cache_hierarchy.l2-cache-0.overallMshrMissLatency::cache_hierarchy.l2-cache-0.prefetcher     20672263                       # number of overall MSHR miss ticks (Tick)
board.cache_hierarchy.l2-cache-0.overallMshrMissLatency::processor.cores.core.inst     22477000                       # number of overall MSHR miss ticks (Tick)
board.cache_hierarchy.l2-cache-0.overallMshrMissLatency::processor.cores.core.data     14749000                       # number of overall MSHR miss ticks (Tick)
board.cache_hierarchy.l2-cache-0.overallMshrMissLatency::total     59063263                       # number of overall MSHR miss ticks (Tick)
board.cache_hierarchy.l2-cache-0.demandMshrMissRate::cache_hierarchy.l1d-cache-0.prefetcher     0.000069                       # mshr miss ratio for demand accesses (Ratio)
board.cache_hierarchy.l2-cache-0.demandMshrMissRate::processor.cores.core.inst            1                       # mshr miss ratio for demand accesses (Ratio)
board.cache_hierarchy.l2-cache-0.demandMshrMissRate::processor.cores.core.data     0.021221                       # mshr miss ratio for demand accesses (Ratio)
board.cache_hierarchy.l2-cache-0.demandMshrMissRate::total     0.003085                       # mshr miss ratio for demand accesses (Ratio)
board.cache_hierarchy.l2-cache-0.overallMshrMissRate::cache_hierarchy.l1d-cache-0.prefetcher     0.000069                       # mshr miss ratio for overall accesses (Ratio)
board.cache_hierarchy.l2-cache-0.overallMshrMissRate::cache_hierarchy.l2-cache-0.prefetcher          inf                       # mshr miss ratio for overall accesses (Ratio)
board.cache_hierarchy.l2-cache-0.overallMshrMissRate::processor.cores.core.inst            1                       # mshr miss ratio for overall accesses (Ratio)
board.cache_hierarchy.l2-cache-0.overallMshrMissRate::processor.cores.core.data     0.021221                       # mshr miss ratio for overall accesses (Ratio)
board.cache_hierarchy.l2-cache-0.overallMshrMissRate::total     0.005027                       # mshr miss ratio for overall accesses (Ratio)
board.cache_hierarchy.l2-cache-0.demandAvgMshrMissLatency::cache_hierarchy.l1d-cache-0.prefetcher 97083.333333                       # average overall mshr miss latency ((Tick/Count))
board.cache_hierarchy.l2-cache-0.demandAvgMshrMissLatency::processor.cores.core.inst 65530.612245                       # average overall mshr miss latency ((Tick/Count))
board.cache_hierarchy.l2-cache-0.demandAvgMshrMissLatency::processor.cores.core.data 69570.754717                       # average overall mshr miss latency ((Tick/Count))
board.cache_hierarchy.l2-cache-0.demandAvgMshrMissLatency::total 67708.994709                       # average overall mshr miss latency ((Tick/Count))
board.cache_hierarchy.l2-cache-0.overallAvgMshrMissLatency::cache_hierarchy.l1d-cache-0.prefetcher 97083.333333                       # average overall mshr miss latency ((Tick/Count))
board.cache_hierarchy.l2-cache-0.overallAvgMshrMissLatency::cache_hierarchy.l2-cache-0.prefetcher 57905.498599                       # average overall mshr miss latency ((Tick/Count))
board.cache_hierarchy.l2-cache-0.overallAvgMshrMissLatency::processor.cores.core.inst 65530.612245                       # average overall mshr miss latency ((Tick/Count))
board.cache_hierarchy.l2-cache-0.overallAvgMshrMissLatency::processor.cores.core.data 69570.754717                       # average overall mshr miss latency ((Tick/Count))
board.cache_hierarchy.l2-cache-0.overallAvgMshrMissLatency::total 63921.280303                       # average overall mshr miss latency ((Tick/Count))
board.cache_hierarchy.l2-cache-0.replacements            0                       # number of replacements (Count)
board.cache_hierarchy.l2-cache-0.HardPFReq.mshrMisses::cache_hierarchy.l2-cache-0.prefetcher          357                       # number of HardPFReq MSHR misses (Count)
board.cache_hierarchy.l2-cache-0.HardPFReq.mshrMisses::total          357                       # number of HardPFReq MSHR misses (Count)
board.cache_hierarchy.l2-cache-0.HardPFReq.mshrMissLatency::cache_hierarchy.l2-cache-0.prefetcher     20672263                       # number of HardPFReq MSHR miss ticks (Tick)
board.cache_hierarchy.l2-cache-0.HardPFReq.mshrMissLatency::total     20672263                       # number of HardPFReq MSHR miss ticks (Tick)
board.cache_hierarchy.l2-cache-0.HardPFReq.mshrMissRate::cache_hierarchy.l2-cache-0.prefetcher          inf                       # mshr miss rate for HardPFReq accesses (Ratio)
board.cache_hierarchy.l2-cache-0.HardPFReq.mshrMissRate::total          inf                       # mshr miss rate for HardPFReq accesses (Ratio)
board.cache_hierarchy.l2-cache-0.HardPFReq.avgMshrMissLatency::cache_hierarchy.l2-cache-0.prefetcher 57905.498599                       # average HardPFReq mshr miss latency ((Tick/Count))
board.cache_hierarchy.l2-cache-0.HardPFReq.avgMshrMissLatency::total 57905.498599                       # average HardPFReq mshr miss latency ((Tick/Count))
board.cache_hierarchy.l2-cache-0.ReadExReq.hits::processor.cores.core.data          940                       # number of ReadExReq hits (Count)
board.cache_hierarchy.l2-cache-0.ReadExReq.hits::total          940                       # number of ReadExReq hits (Count)
board.cache_hierarchy.l2-cache-0.ReadExReq.misses::processor.cores.core.data           87                       # number of ReadExReq misses (Count)
board.cache_hierarchy.l2-cache-0.ReadExReq.misses::total           87                       # number of ReadExReq misses (Count)
board.cache_hierarchy.l2-cache-0.ReadExReq.missLatency::processor.cores.core.data      5953000                       # number of ReadExReq miss ticks (Tick)
board.cache_hierarchy.l2-cache-0.ReadExReq.missLatency::total      5953000                       # number of ReadExReq miss ticks (Tick)
board.cache_hierarchy.l2-cache-0.ReadExReq.accesses::processor.cores.core.data         1027                       # number of ReadExReq accesses(hits+misses) (Count)
board.cache_hierarchy.l2-cache-0.ReadExReq.accesses::total         1027                       # number of ReadExReq accesses(hits+misses) (Count)
board.cache_hierarchy.l2-cache-0.ReadExReq.missRate::processor.cores.core.data     0.084713                       # miss rate for ReadExReq accesses (Ratio)
board.cache_hierarchy.l2-cache-0.ReadExReq.missRate::total     0.084713                       # miss rate for ReadExReq accesses (Ratio)
board.cache_hierarchy.l2-cache-0.ReadExReq.avgMissLatency::processor.cores.core.data 68425.287356                       # average ReadExReq miss latency ((Tick/Count))
board.cache_hierarchy.l2-cache-0.ReadExReq.avgMissLatency::total 68425.287356                       # average ReadExReq miss latency ((Tick/Count))
board.cache_hierarchy.l2-cache-0.ReadExReq.mshrMisses::processor.cores.core.data           87                       # number of ReadExReq MSHR misses (Count)
board.cache_hierarchy.l2-cache-0.ReadExReq.mshrMisses::total           87                       # number of ReadExReq MSHR misses (Count)
board.cache_hierarchy.l2-cache-0.ReadExReq.mshrMissLatency::processor.cores.core.data      5866000                       # number of ReadExReq MSHR miss ticks (Tick)
board.cache_hierarchy.l2-cache-0.ReadExReq.mshrMissLatency::total      5866000                       # number of ReadExReq MSHR miss ticks (Tick)
board.cache_hierarchy.l2-cache-0.ReadExReq.mshrMissRate::processor.cores.core.data     0.084713                       # mshr miss rate for ReadExReq accesses (Ratio)
board.cache_hierarchy.l2-cache-0.ReadExReq.mshrMissRate::total     0.084713                       # mshr miss rate for ReadExReq accesses (Ratio)
board.cache_hierarchy.l2-cache-0.ReadExReq.avgMshrMissLatency::processor.cores.core.data 67425.287356                       # average ReadExReq mshr miss latency ((Tick/Count))
board.cache_hierarchy.l2-cache-0.ReadExReq.avgMshrMissLatency::total 67425.287356                       # average ReadExReq mshr miss latency ((Tick/Count))
board.cache_hierarchy.l2-cache-0.ReadSharedReq.hits::cache_hierarchy.l1d-cache-0.prefetcher       173424                       # number of ReadSharedReq hits (Count)
board.cache_hierarchy.l2-cache-0.ReadSharedReq.hits::processor.cores.core.data         8838                       # number of ReadSharedReq hits (Count)
board.cache_hierarchy.l2-cache-0.ReadSharedReq.hits::total       182262                       # number of ReadSharedReq hits (Count)
board.cache_hierarchy.l2-cache-0.ReadSharedReq.misses::cache_hierarchy.l1d-cache-0.prefetcher           40                       # number of ReadSharedReq misses (Count)
board.cache_hierarchy.l2-cache-0.ReadSharedReq.misses::processor.cores.core.inst          343                       # number of ReadSharedReq misses (Count)
board.cache_hierarchy.l2-cache-0.ReadSharedReq.misses::processor.cores.core.data          125                       # number of ReadSharedReq misses (Count)
board.cache_hierarchy.l2-cache-0.ReadSharedReq.misses::total          508                       # number of ReadSharedReq misses (Count)
board.cache_hierarchy.l2-cache-0.ReadSharedReq.missLatency::cache_hierarchy.l1d-cache-0.prefetcher      2797000                       # number of ReadSharedReq miss ticks (Tick)
board.cache_hierarchy.l2-cache-0.ReadSharedReq.missLatency::processor.cores.core.inst     22820000                       # number of ReadSharedReq miss ticks (Tick)
board.cache_hierarchy.l2-cache-0.ReadSharedReq.missLatency::processor.cores.core.data      9008000                       # number of ReadSharedReq miss ticks (Tick)
board.cache_hierarchy.l2-cache-0.ReadSharedReq.missLatency::total     34625000                       # number of ReadSharedReq miss ticks (Tick)
board.cache_hierarchy.l2-cache-0.ReadSharedReq.accesses::cache_hierarchy.l1d-cache-0.prefetcher       173464                       # number of ReadSharedReq accesses(hits+misses) (Count)
board.cache_hierarchy.l2-cache-0.ReadSharedReq.accesses::processor.cores.core.inst          343                       # number of ReadSharedReq accesses(hits+misses) (Count)
board.cache_hierarchy.l2-cache-0.ReadSharedReq.accesses::processor.cores.core.data         8963                       # number of ReadSharedReq accesses(hits+misses) (Count)
board.cache_hierarchy.l2-cache-0.ReadSharedReq.accesses::total       182770                       # number of ReadSharedReq accesses(hits+misses) (Count)
board.cache_hierarchy.l2-cache-0.ReadSharedReq.missRate::cache_hierarchy.l1d-cache-0.prefetcher     0.000231                       # miss rate for ReadSharedReq accesses (Ratio)
board.cache_hierarchy.l2-cache-0.ReadSharedReq.missRate::processor.cores.core.inst            1                       # miss rate for ReadSharedReq accesses (Ratio)
board.cache_hierarchy.l2-cache-0.ReadSharedReq.missRate::processor.cores.core.data     0.013946                       # miss rate for ReadSharedReq accesses (Ratio)
board.cache_hierarchy.l2-cache-0.ReadSharedReq.missRate::total     0.002779                       # miss rate for ReadSharedReq accesses (Ratio)
board.cache_hierarchy.l2-cache-0.ReadSharedReq.avgMissLatency::cache_hierarchy.l1d-cache-0.prefetcher        69925                       # average ReadSharedReq miss latency ((Tick/Count))
board.cache_hierarchy.l2-cache-0.ReadSharedReq.avgMissLatency::processor.cores.core.inst 66530.612245                       # average ReadSharedReq miss latency ((Tick/Count))
board.cache_hierarchy.l2-cache-0.ReadSharedReq.avgMissLatency::processor.cores.core.data        72064                       # average ReadSharedReq miss latency ((Tick/Count))
board.cache_hierarchy.l2-cache-0.ReadSharedReq.avgMissLatency::total 68159.448819                       # average ReadSharedReq miss latency ((Tick/Count))
board.cache_hierarchy.l2-cache-0.ReadSharedReq.mshrHits::cache_hierarchy.l1d-cache-0.prefetcher           28                       # number of ReadSharedReq MSHR hits (Count)
board.cache_hierarchy.l2-cache-0.ReadSharedReq.mshrHits::total           28                       # number of ReadSharedReq MSHR hits (Count)
board.cache_hierarchy.l2-cache-0.ReadSharedReq.mshrMisses::cache_hierarchy.l1d-cache-0.prefetcher           12                       # number of ReadSharedReq MSHR misses (Count)
board.cache_hierarchy.l2-cache-0.ReadSharedReq.mshrMisses::processor.cores.core.inst          343                       # number of ReadSharedReq MSHR misses (Count)
board.cache_hierarchy.l2-cache-0.ReadSharedReq.mshrMisses::processor.cores.core.data          125                       # number of ReadSharedReq MSHR misses (Count)
board.cache_hierarchy.l2-cache-0.ReadSharedReq.mshrMisses::total          480                       # number of ReadSharedReq MSHR misses (Count)
board.cache_hierarchy.l2-cache-0.ReadSharedReq.mshrMissLatency::cache_hierarchy.l1d-cache-0.prefetcher      1165000                       # number of ReadSharedReq MSHR miss ticks (Tick)
board.cache_hierarchy.l2-cache-0.ReadSharedReq.mshrMissLatency::processor.cores.core.inst     22477000                       # number of ReadSharedReq MSHR miss ticks (Tick)
board.cache_hierarchy.l2-cache-0.ReadSharedReq.mshrMissLatency::processor.cores.core.data      8883000                       # number of ReadSharedReq MSHR miss ticks (Tick)
board.cache_hierarchy.l2-cache-0.ReadSharedReq.mshrMissLatency::total     32525000                       # number of ReadSharedReq MSHR miss ticks (Tick)
board.cache_hierarchy.l2-cache-0.ReadSharedReq.mshrMissRate::cache_hierarchy.l1d-cache-0.prefetcher     0.000069                       # mshr miss rate for ReadSharedReq accesses (Ratio)
board.cache_hierarchy.l2-cache-0.ReadSharedReq.mshrMissRate::processor.cores.core.inst            1                       # mshr miss rate for ReadSharedReq accesses (Ratio)
board.cache_hierarchy.l2-cache-0.ReadSharedReq.mshrMissRate::processor.cores.core.data     0.013946                       # mshr miss rate for ReadSharedReq accesses (Ratio)
board.cache_hierarchy.l2-cache-0.ReadSharedReq.mshrMissRate::total     0.002626                       # mshr miss rate for ReadSharedReq accesses (Ratio)
board.cache_hierarchy.l2-cache-0.ReadSharedReq.avgMshrMissLatency::cache_hierarchy.l1d-cache-0.prefetcher 97083.333333                       # average ReadSharedReq mshr miss latency ((Tick/Count))
board.cache_hierarchy.l2-cache-0.ReadSharedReq.avgMshrMissLatency::processor.cores.core.inst 65530.612245                       # average ReadSharedReq mshr miss latency ((Tick/Count))
board.cache_hierarchy.l2-cache-0.ReadSharedReq.avgMshrMissLatency::processor.cores.core.data        71064                       # average ReadSharedReq mshr miss latency ((Tick/Count))
board.cache_hierarchy.l2-cache-0.ReadSharedReq.avgMshrMissLatency::total 67760.416667                       # average ReadSharedReq mshr miss latency ((Tick/Count))
board.cache_hierarchy.l2-cache-0.WritebackClean.hits::writebacks           91                       # number of WritebackClean hits (Count)
board.cache_hierarchy.l2-cache-0.WritebackClean.hits::total           91                       # number of WritebackClean hits (Count)
board.cache_hierarchy.l2-cache-0.WritebackClean.accesses::writebacks           91                       # number of WritebackClean accesses(hits+misses) (Count)
board.cache_hierarchy.l2-cache-0.WritebackClean.accesses::total           91                       # number of WritebackClean accesses(hits+misses) (Count)
board.cache_hierarchy.l2-cache-0.WritebackDirty.hits::writebacks        20756                       # number of WritebackDirty hits (Count)
board.cache_hierarchy.l2-cache-0.WritebackDirty.hits::total        20756                       # number of WritebackDirty hits (Count)
board.cache_hierarchy.l2-cache-0.WritebackDirty.accesses::writebacks        20756                       # number of WritebackDirty accesses(hits+misses) (Count)
board.cache_hierarchy.l2-cache-0.WritebackDirty.accesses::total        20756                       # number of WritebackDirty accesses(hits+misses) (Count)
board.cache_hierarchy.l2-cache-0.power_state.pwrStateResidencyTicks::UNDEFINED  21683671000                       # Cumulative time (in ticks) in various power states (Tick)
board.cache_hierarchy.l2-cache-0.prefetcher.demandMshrMisses          567                       # demands not covered by prefetchs (Count)
board.cache_hierarchy.l2-cache-0.prefetcher.pfIssued         1276                       # number of hwpf issued (Count)
board.cache_hierarchy.l2-cache-0.prefetcher.pfUseful          318                       # number of useful prefetch (Count)
board.cache_hierarchy.l2-cache-0.prefetcher.pfUsefulButMiss            0                       # number of hit on prefetch but cache block is not in an usable state (Count)
board.cache_hierarchy.l2-cache-0.prefetcher.accuracy     0.249216                       # accuracy of the prefetcher (Count)
board.cache_hierarchy.l2-cache-0.prefetcher.coverage     0.359322                       # coverage brought by this prefetcher (Count)
board.cache_hierarchy.l2-cache-0.prefetcher.pfHitInCache          844                       # number of prefetches hitting in cache (Count)
board.cache_hierarchy.l2-cache-0.prefetcher.pfHitInMSHR           75                       # number of prefetches hitting in a MSHR (Count)
board.cache_hierarchy.l2-cache-0.prefetcher.pfHitInWB            0                       # number of prefetches hit in the Write Buffer (Count)
board.cache_hierarchy.l2-cache-0.prefetcher.pfLate          919                       # number of late prefetches (hitting in cache, MSHR or WB) (Count)
board.cache_hierarchy.l2-cache-0.prefetcher.pfIdentified         1389                       # number of prefetch candidates identified (Count)
board.cache_hierarchy.l2-cache-0.prefetcher.pfBufferHit           73                       # number of redundant prefetches already in prefetch queue (Count)
board.cache_hierarchy.l2-cache-0.prefetcher.pfInCache            0                       # number of redundant prefetches already in cache/mshr dropped (Count)
board.cache_hierarchy.l2-cache-0.prefetcher.pfRemovedDemand           28                       # number of prefetches dropped due to a demand for the same address (Count)
board.cache_hierarchy.l2-cache-0.prefetcher.pfRemovedFull            0                       # number of prefetches dropped due to prefetch queue size (Count)
board.cache_hierarchy.l2-cache-0.prefetcher.pfSpanPage           51                       # number of prefetches that crossed the page (Count)
board.cache_hierarchy.l2-cache-0.prefetcher.pfUsefulSpanPage           47                       # number of prefetches that is useful and crossed the page (Count)
board.cache_hierarchy.l2-cache-0.prefetcher.power_state.pwrStateResidencyTicks::UNDEFINED  21683671000                       # Cumulative time (in ticks) in various power states (Tick)
board.cache_hierarchy.l2-cache-0.tags.tagsInUse   849.229728                       # Average ticks per tags in use ((Tick/Count))
board.cache_hierarchy.l2-cache-0.tags.totalRefs       367415                       # Total number of references to valid blocks. (Count)
board.cache_hierarchy.l2-cache-0.tags.sampledRefs          924                       # Sample count of references to valid blocks. (Count)
board.cache_hierarchy.l2-cache-0.tags.avgRefs   397.635281                       # Average number of references to valid blocks. ((Count/Count))
board.cache_hierarchy.l2-cache-0.tags.warmupTick        77000                       # The tick when the warmup percentage was hit. (Tick)
board.cache_hierarchy.l2-cache-0.tags.occupancies::cache_hierarchy.l1d-cache-0.prefetcher    11.736739                       # Average occupied blocks per tick, per requestor ((Count/Tick))
board.cache_hierarchy.l2-cache-0.tags.occupancies::cache_hierarchy.l2-cache-0.prefetcher   341.082299                       # Average occupied blocks per tick, per requestor ((Count/Tick))
board.cache_hierarchy.l2-cache-0.tags.occupancies::processor.cores.core.inst   297.434902                       # Average occupied blocks per tick, per requestor ((Count/Tick))
board.cache_hierarchy.l2-cache-0.tags.occupancies::processor.cores.core.data   198.975788                       # Average occupied blocks per tick, per requestor ((Count/Tick))
board.cache_hierarchy.l2-cache-0.tags.avgOccs::cache_hierarchy.l1d-cache-0.prefetcher     0.002865                       # Average percentage of cache occupancy ((Ratio/Tick))
board.cache_hierarchy.l2-cache-0.tags.avgOccs::cache_hierarchy.l2-cache-0.prefetcher     0.083272                       # Average percentage of cache occupancy ((Ratio/Tick))
board.cache_hierarchy.l2-cache-0.tags.avgOccs::processor.cores.core.inst     0.072616                       # Average percentage of cache occupancy ((Ratio/Tick))
board.cache_hierarchy.l2-cache-0.tags.avgOccs::processor.cores.core.data     0.048578                       # Average percentage of cache occupancy ((Ratio/Tick))
board.cache_hierarchy.l2-cache-0.tags.avgOccs::total     0.207331                       # Average percentage of cache occupancy ((Ratio/Tick))
board.cache_hierarchy.l2-cache-0.tags.occupanciesTaskId::1022          369                       # Occupied blocks per task id (Count)
board.cache_hierarchy.l2-cache-0.tags.occupanciesTaskId::1024          555                       # Occupied blocks per task id (Count)
board.cache_hierarchy.l2-cache-0.tags.ageTaskId_1022::1            1                       # Occupied blocks per task id, per block age (Count)
board.cache_hierarchy.l2-cache-0.tags.ageTaskId_1022::3           12                       # Occupied blocks per task id, per block age (Count)
board.cache_hierarchy.l2-cache-0.tags.ageTaskId_1022::4          356                       # Occupied blocks per task id, per block age (Count)
board.cache_hierarchy.l2-cache-0.tags.ageTaskId_1024::0           55                       # Occupied blocks per task id, per block age (Count)
board.cache_hierarchy.l2-cache-0.tags.ageTaskId_1024::4          500                       # Occupied blocks per task id, per block age (Count)
board.cache_hierarchy.l2-cache-0.tags.ratioOccsTaskId::1022     0.090088                       # Ratio of occupied blocks and all blocks, per task id (Ratio)
board.cache_hierarchy.l2-cache-0.tags.ratioOccsTaskId::1024     0.135498                       # Ratio of occupied blocks and all blocks, per task id (Ratio)
board.cache_hierarchy.l2-cache-0.tags.tagAccesses      5874300                       # Number of tag accesses (Count)
board.cache_hierarchy.l2-cache-0.tags.dataAccesses      5874300                       # Number of data accesses (Count)
board.cache_hierarchy.l2-cache-0.tags.power_state.pwrStateResidencyTicks::UNDEFINED  21683671000                       # Cumulative time (in ticks) in various power states (Tick)
board.cache_hierarchy.l2buses.transDist::ReadResp       182770                       # Transaction distribution (Count)
board.cache_hierarchy.l2buses.transDist::WritebackDirty        20756                       # Transaction distribution (Count)
board.cache_hierarchy.l2buses.transDist::WritebackClean           91                       # Transaction distribution (Count)
board.cache_hierarchy.l2buses.transDist::CleanEvict       162442                       # Transaction distribution (Count)
board.cache_hierarchy.l2buses.transDist::HardPFReq          418                       # Transaction distribution (Count)
board.cache_hierarchy.l2buses.transDist::ReadExReq         1027                       # Transaction distribution (Count)
board.cache_hierarchy.l2buses.transDist::ReadExResp         1027                       # Transaction distribution (Count)
board.cache_hierarchy.l2buses.transDist::ReadSharedReq       182770                       # Transaction distribution (Count)
board.cache_hierarchy.l2buses.pktCount_board.cache_hierarchy.l1i-cache-0.mem_side_port::board.cache_hierarchy.l2-cache-0.cpu_side_port          777                       # Packet count per connected requestor and responder (Count)
[...]
board.processor.cores.core.commitStats0.committedInstType::IntDiv        14654      0.12%     57.08% # Class of committed instruction. (Count)
board.processor.cores.core.commitStats0.committedInstType::FloatAdd            0      0.00%     57.08% # Class of committed instruction. (Count)
board.processor.cores.core.commitStats0.committedInstType::FloatCmp            0      0.00%     57.08% # Class of committed instruction. (Count)
board.processor.cores.core.commitStats0.committedInstType::FloatCvt        21525      0.18%     57.26% # Class of committed instruction. (Count)
board.processor.cores.core.commitStats0.committedInstType::FloatMult            0      0.00%     57.26% # Class of committed instruction. (Count)
board.processor.cores.core.commitStats0.committedInstType::FloatMultAcc            0      0.00%     57.26% # Class of committed instruction. (Count)
board.processor.cores.core.commitStats0.committedInstType::FloatDiv        28700      0.24%     57.49% # Class of committed instruction. (Count)
board.processor.cores.core.commitStats0.committedInstType::FloatMisc            0      0.00%     57.49% # Class of committed instruction. (Count)
board.processor.cores.core.commitStats0.committedInstType::FloatSqrt            0      0.00%     57.49% # Class of committed instruction. (Count)
board.processor.cores.core.commitStats0.committedInstType::SimdAdd            0      0.00%     57.49% # Class of committed instruction. (Count)
board.processor.cores.core.commitStats0.committedInstType::SimdAddAcc            0      0.00%     57.49% # Class of committed instruction. (Count)
board.processor.cores.core.commitStats0.committedInstType::SimdAlu            0      0.00%     57.49% # Class of committed instruction. (Count)
board.processor.cores.core.commitStats0.committedInstType::SimdCmp            0      0.00%     57.49% # Class of committed instruction. (Count)
board.processor.cores.core.commitStats0.committedInstType::SimdCvt            0      0.00%     57.49% # Class of committed instruction. (Count)
board.processor.cores.core.commitStats0.committedInstType::SimdMisc            0      0.00%     57.49% # Class of committed instruction. (Count)
board.processor.cores.core.commitStats0.committedInstType::SimdMult            0      0.00%     57.49% # Class of committed instruction. (Count)
board.processor.cores.core.commitStats0.committedInstType::SimdMultAcc            0      0.00%     57.49% # Class of committed instruction. (Count)
board.processor.cores.core.commitStats0.committedInstType::SimdMatMultAcc            0      0.00%     57.49% # Class of committed instruction. (Count)
board.processor.cores.core.commitStats0.committedInstType::SimdShift            0      0.00%     57.49% # Class of committed instruction. (Count)
board.processor.cores.core.commitStats0.committedInstType::SimdShiftAcc            0      0.00%     57.49% # Class of committed instruction. (Count)
board.processor.cores.core.commitStats0.committedInstType::SimdDiv            0      0.00%     57.49% # Class of committed instruction. (Count)
board.processor.cores.core.commitStats0.committedInstType::SimdSqrt            0      0.00%     57.49% # Class of committed instruction. (Count)
board.processor.cores.core.commitStats0.committedInstType::SimdFloatAdd            0      0.00%     57.49% # Class of committed instruction. (Count)
board.processor.cores.core.commitStats0.committedInstType::SimdFloatAlu            0      0.00%     57.49% # Class of committed instruction. (Count)
board.processor.cores.core.commitStats0.committedInstType::SimdFloatCmp            0      0.00%     57.49% # Class of committed instruction. (Count)
board.processor.cores.core.commitStats0.committedInstType::SimdFloatCvt            0      0.00%     57.49% # Class of committed instruction. (Count)
board.processor.cores.core.commitStats0.committedInstType::SimdFloatDiv            0      0.00%     57.49% # Class of committed instruction. (Count)
board.processor.cores.core.commitStats0.committedInstType::SimdFloatMisc            0      0.00%     57.49% # Class of committed instruction. (Count)
board.processor.cores.core.commitStats0.committedInstType::SimdFloatMult            0      0.00%     57.49% # Class of committed instruction. (Count)
board.processor.cores.core.commitStats0.committedInstType::SimdFloatMultAcc            0      0.00%     57.49% # Class of committed instruction. (Count)
board.processor.cores.core.commitStats0.committedInstType::SimdFloatMatMultAcc            0      0.00%     57.49% # Class of committed instruction. (Count)
board.processor.cores.core.commitStats0.committedInstType::SimdFloatSqrt            0      0.00%     57.49% # Class of committed instruction. (Count)
board.processor.cores.core.commitStats0.committedInstType::SimdReduceAdd            0      0.00%     57.49% # Class of committed instruction. (Count)
board.processor.cores.core.commitStats0.committedInstType::SimdReduceAlu            0      0.00%     57.49% # Class of committed instruction. (Count)
board.processor.cores.core.commitStats0.committedInstType::SimdReduceCmp            0      0.00%     57.49% # Class of committed instruction. (Count)
board.processor.cores.core.commitStats0.committedInstType::SimdFloatReduceAdd            0      0.00%     57.49% # Class of committed instruction. (Count)
board.processor.cores.core.commitStats0.committedInstType::SimdFloatReduceCmp            0      0.00%     57.49% # Class of committed instruction. (Count)
board.processor.cores.core.commitStats0.committedInstType::SimdAes            0      0.00%     57.49% # Class of committed instruction. (Count)
board.processor.cores.core.commitStats0.committedInstType::SimdAesMix            0      0.00%     57.49% # Class of committed instruction. (Count)
board.processor.cores.core.commitStats0.committedInstType::SimdSha1Hash            0      0.00%     57.49% # Class of committed instruction. (Count)
board.processor.cores.core.commitStats0.committedInstType::SimdSha1Hash2            0      0.00%     57.49% # Class of committed instruction. (Count)
board.processor.cores.core.commitStats0.committedInstType::SimdSha256Hash            0      0.00%     57.49% # Class of committed instruction. (Count)
board.processor.cores.core.commitStats0.committedInstType::SimdSha256Hash2            0      0.00%     57.49% # Class of committed instruction. (Count)
board.processor.cores.core.commitStats0.committedInstType::SimdShaSigma2            0      0.00%     57.49% # Class of committed instruction. (Count)
board.processor.cores.core.commitStats0.committedInstType::SimdShaSigma3            0      0.00%     57.49% # Class of committed instruction. (Count)
board.processor.cores.core.commitStats0.committedInstType::SimdPredAlu            0      0.00%     57.49% # Class of committed instruction. (Count)
board.processor.cores.core.commitStats0.committedInstType::Matrix            0      0.00%     57.49% # Class of committed instruction. (Count)
board.processor.cores.core.commitStats0.committedInstType::MatrixMov            0      0.00%     57.49% # Class of committed instruction. (Count)
board.processor.cores.core.commitStats0.committedInstType::MatrixOP            0      0.00%     57.49% # Class of committed instruction. (Count)
board.processor.cores.core.commitStats0.committedInstType::MemRead      3144908     26.05%     83.55% # Class of committed instruction. (Count)
board.processor.cores.core.commitStats0.committedInstType::MemWrite      1986077     16.45%    100.00% # Class of committed instruction. (Count)
board.processor.cores.core.commitStats0.committedInstType::FloatMemRead            0      0.00%    100.00% # Class of committed instruction. (Count)
board.processor.cores.core.commitStats0.committedInstType::FloatMemWrite           12      0.00%    100.00% # Class of committed instruction. (Count)
board.processor.cores.core.commitStats0.committedInstType::IprAccess            0      0.00%    100.00% # Class of committed instruction. (Count)
board.processor.cores.core.commitStats0.committedInstType::InstPrefetch            0      0.00%    100.00% # Class of committed instruction. (Count)
board.processor.cores.core.commitStats0.committedInstType::SimdUnitStrideLoad            0      0.00%    100.00% # Class of committed instruction. (Count)
board.processor.cores.core.commitStats0.committedInstType::SimdUnitStrideStore            0      0.00%    100.00% # Class of committed instruction. (Count)
board.processor.cores.core.commitStats0.committedInstType::SimdUnitStrideMaskLoad            0      0.00%    100.00% # Class of committed instruction. (Count)
board.processor.cores.core.commitStats0.committedInstType::SimdUnitStrideMaskStore            0      0.00%    100.00% # Class of committed instruction. (Count)
board.processor.cores.core.commitStats0.committedInstType::SimdStridedLoad            0      0.00%    100.00% # Class of committed instruction. (Count)
board.processor.cores.core.commitStats0.committedInstType::SimdStridedStore            0      0.00%    100.00% # Class of committed instruction. (Count)
board.processor.cores.core.commitStats0.committedInstType::SimdIndexedLoad            0      0.00%    100.00% # Class of committed instruction. (Count)
board.processor.cores.core.commitStats0.committedInstType::SimdIndexedStore            0      0.00%    100.00% # Class of committed instruction. (Count)
board.processor.cores.core.commitStats0.committedInstType::SimdWholeRegisterLoad            0      0.00%    100.00% # Class of committed instruction. (Count)
board.processor.cores.core.commitStats0.committedInstType::SimdWholeRegisterStore            0      0.00%    100.00% # Class of committed instruction. (Count)
board.processor.cores.core.commitStats0.committedInstType::SimdUnitStrideFaultOnlyFirstLoad            0      0.00%    100.00% # Class of committed instruction. (Count)
board.processor.cores.core.commitStats0.committedInstType::SimdUnitStrideSegmentedLoad            0      0.00%    100.00% # Class of committed instruction. (Count)
board.processor.cores.core.commitStats0.committedInstType::SimdUnitStrideSegmentedStore            0      0.00%    100.00% # Class of committed instruction. (Count)
board.processor.cores.core.commitStats0.committedInstType::SimdExt            0      0.00%    100.00% # Class of committed instruction. (Count)
board.processor.cores.core.commitStats0.committedInstType::SimdFloatExt            0      0.00%    100.00% # Class of committed instruction. (Count)
board.processor.cores.core.commitStats0.committedInstType::SimdConfig            0      0.00%    100.00% # Class of committed instruction. (Count)
board.processor.cores.core.commitStats0.committedInstType::total     12071406                       # Class of committed instruction. (Count)
board.processor.cores.core.commitStats0.committedControl::IsControl      1296006                       # Class of control type instructions committed (Count)
board.processor.cores.core.commitStats0.committedControl::IsDirectControl       951787                       # Class of control type instructions committed (Count)
board.processor.cores.core.commitStats0.committedControl::IsIndirectControl       344219                       # Class of control type instructions committed (Count)
board.processor.cores.core.commitStats0.committedControl::IsCondControl       599327                       # Class of control type instructions committed (Count)
board.processor.cores.core.commitStats0.committedControl::IsUncondControl       696679                       # Class of control type instructions committed (Count)
board.processor.cores.core.commitStats0.committedControl::IsCall       343495                       # Class of control type instructions committed (Count)
board.processor.cores.core.commitStats0.committedControl::IsReturn       343490                       # Class of control type instructions committed (Count)
board.processor.cores.core.exec_context.thread_0.numMatAluAccesses            0                       # Number of matrix alu accesses (Count)
board.processor.cores.core.exec_context.thread_0.numCallsReturns       686985                       # Number of times a function call or return occured (Count)
board.processor.cores.core.exec_context.thread_0.numMatInsts            0                       # Number of matrix instructions (Count)
board.processor.cores.core.exec_context.thread_0.numIdleCycles     0.001000                       # Number of idle cycles (Cycle)
board.processor.cores.core.exec_context.thread_0.numBusyCycles 21683670.999000                       # Number of busy cycles (Cycle)
board.processor.cores.core.exec_context.thread_0.notIdleFraction     1.000000                       # Percentage of non-idle cycles (Ratio)
board.processor.cores.core.exec_context.thread_0.idleFraction     0.000000                       # Percentage of idle cycles (Ratio)
board.processor.cores.core.executeStats0.numInsts            0                       # Number of executed instructions (Count)
board.processor.cores.core.executeStats0.numNop            0                       # Number of nop insts executed (Count)
board.processor.cores.core.executeStats0.numBranches            0                       # Number of branches executed (Count)
board.processor.cores.core.executeStats0.numLoadInsts            0                       # Number of load instructions executed (Count)
board.processor.cores.core.executeStats0.numStoreInsts      5130997                       # Number of stores executed (Count)
board.processor.cores.core.executeStats0.instRate            0                       # Inst execution rate ((Count/Cycle))
board.processor.cores.core.executeStats0.numFpAluAccesses        50237                       # Number of float alu accesses (Count)
board.processor.cores.core.executeStats0.numFpRegReads        64587                       # Number of times the floating registers were read (Count)
board.processor.cores.core.executeStats0.numFpRegWrites        43050                       # Number of times the floating registers were written (Count)
board.processor.cores.core.executeStats0.numIntAluAccesses     12025697                       # Number of integer alu accesses (Count)
board.processor.cores.core.executeStats0.numIntRegReads     13649683                       # Number of times the integer registers were read (Count)
board.processor.cores.core.executeStats0.numIntRegWrites      9066870                       # Number of times the integer registers were written (Count)
board.processor.cores.core.executeStats0.numMemRefs      5130997                       # Number of memory refs (Count)
board.processor.cores.core.executeStats0.numMiscRegReads       754826                       # Number of times the Misc registers were read (Count)
board.processor.cores.core.executeStats0.numMiscRegWrites       100450                       # Number of times the Misc registers were written (Count)
board.processor.cores.core.executeStats0.numVecAluAccesses            0                       # Number of vector alu accesses (Count)
board.processor.cores.core.executeStats0.numDiscardedOps            0                       # Number of ops (including micro ops) which were discarded before commit (Count)
board.processor.cores.core.fetchStats0.numInsts     12071372                       # Number of instructions fetched (thread level) (Count)
board.processor.cores.core.fetchStats0.numOps     12071406                       # Number of ops (including micro ops) fetched (thread level) (Count)
board.processor.cores.core.fetchStats0.fetchRate     0.556703                       # Number of inst fetches per cycle ((Count/Cycle))
board.processor.cores.core.fetchStats0.numBranches      1296006                       # Number of branches fetched (Count)
board.processor.cores.core.fetchStats0.branchRate     0.059769                       # Number of branch fetches per cycle (Ratio)
board.processor.cores.core.fetchStats0.numFetchSuspends            0                       # Number of times Execute suspended instruction fetching (Count)
board.processor.cores.core.mmu.dtb.readHits            0                       # read hits (Count)
board.processor.cores.core.mmu.dtb.readMisses            0                       # read misses (Count)
board.processor.cores.core.mmu.dtb.readAccesses            0                       # read accesses (Count)
board.processor.cores.core.mmu.dtb.writeHits            0                       # write hits (Count)
board.processor.cores.core.mmu.dtb.writeMisses            0                       # write misses (Count)
board.processor.cores.core.mmu.dtb.writeAccesses            0                       # write accesses (Count)
board.processor.cores.core.mmu.dtb.hits             0                       # Total TLB (read and write) hits (Count)
board.processor.cores.core.mmu.dtb.misses            0                       # Total TLB (read and write) misses (Count)
board.processor.cores.core.mmu.dtb.accesses            0                       # Total TLB (read and write) accesses (Count)
board.processor.cores.core.mmu.dtb.walker.num_4kb_walks            0                       # Completed page walks with 4KB pages (Count)
board.processor.cores.core.mmu.dtb.walker.num_2mb_walks            0                       # Completed page walks with 2MB pages (Count)
board.processor.cores.core.mmu.dtb.walker.power_state.pwrStateResidencyTicks::UNDEFINED  21683671000                       # Cumulative time (in ticks) in various power states (Tick)
board.processor.cores.core.mmu.itb.readHits            0                       # read hits (Count)
board.processor.cores.core.mmu.itb.readMisses            0                       # read misses (Count)
board.processor.cores.core.mmu.itb.readAccesses            0                       # read accesses (Count)
board.processor.cores.core.mmu.itb.writeHits            0                       # write hits (Count)
board.processor.cores.core.mmu.itb.writeMisses            0                       # write misses (Count)
board.processor.cores.core.mmu.itb.writeAccesses            0                       # write accesses (Count)
board.processor.cores.core.mmu.itb.hits             0                       # Total TLB (read and write) hits (Count)
board.processor.cores.core.mmu.itb.misses            0                       # Total TLB (read and write) misses (Count)
board.processor.cores.core.mmu.itb.accesses            0                       # Total TLB (read and write) accesses (Count)
board.processor.cores.core.mmu.itb.walker.num_4kb_walks            0                       # Completed page walks with 4KB pages (Count)
board.processor.cores.core.mmu.itb.walker.num_2mb_walks            0                       # Completed page walks with 2MB pages (Count)
board.processor.cores.core.mmu.itb.walker.power_state.pwrStateResidencyTicks::UNDEFINED  21683671000                       # Cumulative time (in ticks) in various power states (Tick)
board.processor.cores.core.power_state.pwrStateResidencyTicks::ON  21683671000                       # Cumulative time (in ticks) in various power states (Tick)
board.processor.cores.core.thread_0.numInsts            0                       # Number of Instructions committed (Count)
board.processor.cores.core.thread_0.numOps            0                       # Number of Ops committed (Count)
board.processor.cores.core.thread_0.numMemRefs            0                       # Number of Memory References (Count)
board.processor.cores.core.workload.numSyscalls           14                       # Number of system calls (Count)
board.workload.inst.arm                             0                       # number of arm instructions executed (Count)
board.workload.inst.quiesce                         0                       # number of quiesce instructions executed (Count)

---------- End Simulation Statistics   ----------
