---------- Begin Simulation Statistics ----------
simSeconds                                   0.166511                       # Number of seconds simulated (Second)
simTicks                                 166510509000                       # Number of ticks simulated (Tick)
finalTick                                166510509000                       # Number of ticks from beginning of simulation (restored from checkpoints and never reset) (Tick)
simFreq                                  1000000000000                       # The number of ticks per simulated second ((Tick/Second))
hostSeconds                                    146.40                       # Real time elapsed on the host (Second)
hostTickRate                               1137356781                       # The number of ticks simulated per host second (ticks/s) ((Tick/Second))
hostMemory                                    2242656                       # Number of bytes of host memory used (Byte)
simInsts                                     99232175                       # Number of instructions simulated (Count)
simOps                                       99232183                       # Number of ops (including micro ops) simulated (Count)
hostInstRate                                   677809                       # Simulator instruction rate (inst/s) ((Count/Second))
hostOpRate                                     677809                       # Simulator op (including micro ops) rate (op/s) ((Count/Second))
board.cache_hierarchy.l1d-cache-0.demandHits::processor.cores.core.data     31394915                       # number of demand (read+write) hits (Count)
board.cache_hierarchy.l1d-cache-0.demandHits::total     31394915                       # number of demand (read+write) hits (Count)
board.cache_hierarchy.l1d-cache-0.overallHits::processor.cores.core.data     31394915                       # number of overall hits (Count)
board.cache_hierarchy.l1d-cache-0.overallHits::total     31394915                       # number of overall hits (Count)
board.cache_hierarchy.l1d-cache-0.demandMisses::processor.cores.core.data       295717                       # number of demand (read+write) misses (Count)
board.cache_hierarchy.l1d-cache-0.demandMisses::total       295717                       # number of demand (read+write) misses (Count)
board.cache_hierarchy.l1d-cache-0.overallMisses::processor.cores.core.data       295717                       # number of overall misses (Count)
board.cache_hierarchy.l1d-cache-0.overallMisses::total       295717                       # number of overall misses (Count)
board.cache_hierarchy.l1d-cache-0.demandMissLatency::processor.cores.core.data   4155975000                       # number of demand (read+write) miss ticks (Tick)
board.cache_hierarchy.l1d-cache-0.demandMissLatency::total   4155975000                       # number of demand (read+write) miss ticks (Tick)
board.cache_hierarchy.l1d-cache-0.overallMissLatency::processor.cores.core.data   4155975000                       # number of overall miss ticks (Tick)
board.cache_hierarchy.l1d-cache-0.overallMissLatency::total   4155975000                       # number of overall miss ticks (Tick)
board.cache_hierarchy.l1d-cache-0.demandAccesses::processor.cores.core.data     31690632                       # number of demand (read+write) accesses (Count)
board.cache_hierarchy.l1d-cache-0.demandAccesses::total     31690632                       # number of demand (read+write) accesses (Count)
board.cache_hierarchy.l1d-cache-0.overallAccesses::processor.cores.core.data     31690632                       # number of overall (read+write) accesses (Count)
board.cache_hierarchy.l1d-cache-0.overallAccesses::total     31690632                       # number of overall (read+write) accesses (Count)
board.cache_hierarchy.l1d-cache-0.demandMissRate::processor.cores.core.data     0.009331                       # miss rate for demand accesses (Ratio)
board.cache_hierarchy.l1d-cache-0.demandMissRate::total     0.009331                       # miss rate for demand accesses (Ratio)
board.cache_hierarchy.l1d-cache-0.overallMissRate::processor.cores.core.data     0.009331                       # miss rate for overall accesses (Ratio)
board.cache_hierarchy.l1d-cache-0.overallMissRate::total     0.009331                       # miss rate for overall accesses (Ratio)
board.cache_hierarchy.l1d-cache-0.demandAvgMissLatency::processor.cores.core.data 14053.892742                       # average overall miss latency in ticks ((Tick/Count))
board.cache_hierarchy.l1d-cache-0.demandAvgMissLatency::total 14053.892742                       # average overall miss latency in ticks ((Tick/Count))
board.cache_hierarchy.l1d-cache-0.overallAvgMissLatency::processor.cores.core.data 14053.892742                       # average overall miss latency ((Tick/Count))
board.cache_hierarchy.l1d-cache-0.overallAvgMissLatency::total 14053.892742                       # average overall miss latency ((Tick/Count))
board.cache_hierarchy.l1d-cache-0.blockedCycles::no_mshrs            0                       # number of cycles access was blocked (Cycle)
board.cache_hierarchy.l1d-cache-0.blockedCycles::no_targets            0                       # number of cycles access was blocked (Cycle)
board.cache_hierarchy.l1d-cache-0.blockedCauses::no_mshrs            0                       # number of times access was blocked (Count)
board.cache_hierarchy.l1d-cache-0.blockedCauses::no_targets            0                       # number of times access was blocked (Count)
board.cache_hierarchy.l1d-cache-0.avgBlocked::no_mshrs          nan                       # average number of cycles each access was blocked ((Cycle/Count))
board.cache_hierarchy.l1d-cache-0.avgBlocked::no_targets          nan                       # average number of cycles each access was blocked ((Cycle/Count))
board.cache_hierarchy.l1d-cache-0.writebacks::writebacks      2182903                       # number of writebacks (Count)
board.cache_hierarchy.l1d-cache-0.writebacks::total      2182903                       # number of writebacks (Count)
board.cache_hierarchy.l1d-cache-0.demandMshrMisses::processor.cores.core.data       295717                       # number of demand (read+write) MSHR misses (Count)
board.cache_hierarchy.l1d-cache-0.demandMshrMisses::total       295717                       # number of demand (read+write) MSHR misses (Count)
board.cache_hierarchy.l1d-cache-0.overallMshrMisses::cache_hierarchy.l1d-cache-0.prefetcher      1888263                       # number of overall MSHR misses (Count)
board.cache_hierarchy.l1d-cache-0.overallMshrMisses::processor.cores.core.data       295717                       # number of overall MSHR misses (Count)
board.cache_hierarchy.l1d-cache-0.overallMshrMisses::total      2183980                       # number of overall MSHR misses (Count)
board.cache_hierarchy.l1d-cache-0.demandMshrMissLatency::processor.cores.core.data   3860258000                       # number of demand (read+write) MSHR miss ticks (Tick)
board.cache_hierarchy.l1d-cache-0.demandMshrMissLatency::total   3860258000                       # number of demand (read+write) MSHR miss ticks (Tick)
board.cache_hierarchy.l1d-cache-0.overallMshrMissLatency::cache_hierarchy.l1d-cache-0.prefetcher  30901031755                       # number of overall MSHR miss ticks (Tick)
board.cache_hierarchy.l1d-cache-0.overallMshrMissLatency::processor.cores.core.data   3860258000                       # number of overall MSHR miss ticks (Tick)
board.cache_hierarchy.l1d-cache-0.overallMshrMissLatency::total  34761289755                       # number of overall MSHR miss ticks (Tick)
board.cache_hierarchy.l1d-cache-0.demandMshrMissRate::processor.cores.core.data     0.009331                       # mshr miss ratio for demand accesses (Ratio)
board.cache_hierarchy.l1d-cache-0.demandMshrMissRate::total     0.009331                       # mshr miss ratio for demand accesses (Ratio)
board.cache_hierarchy.l1d-cache-0.overallMshrMissRate::cache_hierarchy.l1d-cache-0.prefetcher          inf                       # mshr miss ratio for overall accesses (Ratio)
board.cache_hierarchy.l1d-cache-0.overallMshrMissRate::processor.cores.core.data     0.009331                       # mshr miss ratio for overall accesses (Ratio)
board.cache_hierarchy.l1d-cache-0.overallMshrMissRate::total     0.068916                       # mshr miss ratio for overall accesses (Ratio)
board.cache_hierarchy.l1d-cache-0.demandAvgMshrMissLatency::processor.cores.core.data 13053.892742                       # average overall mshr miss latency ((Tick/Count))
board.cache_hierarchy.l1d-cache-0.demandAvgMshrMissLatency::total 13053.892742                       # average overall mshr miss latency ((Tick/Count))
board.cache_hierarchy.l1d-cache-0.overallAvgMshrMissLatency::cache_hierarchy.l1d-cache-0.prefetcher 16364.792275                       # average overall mshr miss latency ((Tick/Count))
board.cache_hierarchy.l1d-cache-0.overallAvgMshrMissLatency::processor.cores.core.data 13053.892742                       # average overall mshr miss latency ((Tick/Count))
board.cache_hierarchy.l1d-cache-0.overallAvgMshrMissLatency::total 15916.487218                       # average overall mshr miss latency ((Tick/Count))
board.cache_hierarchy.l1d-cache-0.replacements      2183728                       # number of replacements (Count)
board.cache_hierarchy.l1d-cache-0.HardPFReq.mshrMisses::cache_hierarchy.l1d-cache-0.prefetcher      1888263                       # number of HardPFReq MSHR misses (Count)
board.cache_hierarchy.l1d-cache-0.HardPFReq.mshrMisses::total      1888263                       # number of HardPFReq MSHR misses (Count)
board.cache_hierarchy.l1d-cache-0.HardPFReq.mshrMissLatency::cache_hierarchy.l1d-cache-0.prefetcher  30901031755                       # number of HardPFReq MSHR miss ticks (Tick)
board.cache_hierarchy.l1d-cache-0.HardPFReq.mshrMissLatency::total  30901031755                       # number of HardPFReq MSHR miss ticks (Tick)
board.cache_hierarchy.l1d-cache-0.HardPFReq.mshrMissRate::cache_hierarchy.l1d-cache-0.prefetcher          inf                       # mshr miss rate for HardPFReq accesses (Ratio)
board.cache_hierarchy.l1d-cache-0.HardPFReq.mshrMissRate::total          inf                       # mshr miss rate for HardPFReq accesses (Ratio)
board.cache_hierarchy.l1d-cache-0.HardPFReq.avgMshrMissLatency::cache_hierarchy.l1d-cache-0.prefetcher 16364.792275                       # average HardPFReq mshr miss latency ((Tick/Count))
board.cache_hierarchy.l1d-cache-0.HardPFReq.avgMshrMissLatency::total 16364.792275                       # average HardPFReq mshr miss latency ((Tick/Count))
board.cache_hierarchy.l1d-cache-0.LoadLockedReq.hits::processor.cores.core.data            5                       # number of LoadLockedReq hits (Count)
board.cache_hierarchy.l1d-cache-0.LoadLockedReq.hits::total            5                       # number of LoadLockedReq hits (Count)
board.cache_hierarchy.l1d-cache-0.LoadLockedReq.misses::processor.cores.core.data            3                       # number of LoadLockedReq misses (Count)
board.cache_hierarchy.l1d-cache-0.LoadLockedReq.misses::total            3                       # number of LoadLockedReq misses (Count)
board.cache_hierarchy.l1d-cache-0.LoadLockedReq.missLatency::processor.cores.core.data       184000                       # number of LoadLockedReq miss ticks (Tick)
board.cache_hierarchy.l1d-cache-0.LoadLockedReq.missLatency::total       184000                       # number of LoadLockedReq miss ticks (Tick)
board.cache_hierarchy.l1d-cache-0.LoadLockedReq.accesses::processor.cores.core.data            8                       # number of LoadLockedReq accesses(hits+misses) (Count)
board.cache_hierarchy.l1d-cache-0.LoadLockedReq.accesses::total            8                       # number of LoadLockedReq accesses(hits+misses) (Count)
board.cache_hierarchy.l1d-cache-0.LoadLockedReq.missRate::processor.cores.core.data     0.375000                       # miss rate for LoadLockedReq accesses (Ratio)
board.cache_hierarchy.l1d-cache-0.LoadLockedReq.missRate::total     0.375000                       # miss rate for LoadLockedReq accesses (Ratio)
board.cache_hierarchy.l1d-cache-0.LoadLockedReq.avgMissLatency::processor.cores.core.data 61333.333333                       # average LoadLockedReq miss latency ((Tick/Count))
board.cache_hierarchy.l1d-cache-0.LoadLockedReq.avgMissLatency::total 61333.333333                       # average LoadLockedReq miss latency ((Tick/Count))
board.cache_hierarchy.l1d-cache-0.LoadLockedReq.mshrMisses::processor.cores.core.data            3                       # number of LoadLockedReq MSHR misses (Count)
board.cache_hierarchy.l1d-cache-0.LoadLockedReq.mshrMisses::total            3                       # number of LoadLockedReq MSHR misses (Count)
board.cache_hierarchy.l1d-cache-0.LoadLockedReq.mshrMissLatency::processor.cores.core.data       181000                       # number of LoadLockedReq MSHR miss ticks (Tick)
board.cache_hierarchy.l1d-cache-0.LoadLockedReq.mshrMissLatency::total       181000                       # number of LoadLockedReq MSHR miss ticks (Tick)
board.cache_hierarchy.l1d-cache-0.LoadLockedReq.mshrMissRate::processor.cores.core.data     0.375000                       # mshr miss rate for LoadLockedReq accesses (Ratio)
board.cache_hierarchy.l1d-cache-0.LoadLockedReq.mshrMissRate::total     0.375000                       # mshr miss rate for LoadLockedReq accesses (Ratio)
board.cache_hierarchy.l1d-cache-0.LoadLockedReq.avgMshrMissLatency::processor.cores.core.data 60333.333333                       # average LoadLockedReq mshr miss latency ((Tick/Count))
board.cache_hierarchy.l1d-cache-0.LoadLockedReq.avgMshrMissLatency::total 60333.333333                       # average LoadLockedReq mshr miss latency ((Tick/Count))
board.cache_hierarchy.l1d-cache-0.ReadReq.hits::processor.cores.core.data     27116967                       # number of ReadReq hits (Count)
board.cache_hierarchy.l1d-cache-0.ReadReq.hits::total     27116967                       # number of ReadReq hits (Count)
board.cache_hierarchy.l1d-cache-0.ReadReq.misses::processor.cores.core.data       295588                       # number of ReadReq misses (Count)
board.cache_hierarchy.l1d-cache-0.ReadReq.misses::total       295588                       # number of ReadReq misses (Count)
board.cache_hierarchy.l1d-cache-0.ReadReq.missLatency::processor.cores.core.data   4146024000                       # number of ReadReq miss ticks (Tick)
board.cache_hierarchy.l1d-cache-0.ReadReq.missLatency::total   4146024000                       # number of ReadReq miss ticks (Tick)
board.cache_hierarchy.l1d-cache-0.ReadReq.accesses::processor.cores.core.data     27412555                       # number of ReadReq accesses(hits+misses) (Count)
board.cache_hierarchy.l1d-cache-0.ReadReq.accesses::total     27412555                       # number of ReadReq accesses(hits+misses) (Count)
board.cache_hierarchy.l1d-cache-0.ReadReq.missRate::processor.cores.core.data     0.010783                       # miss rate for ReadReq accesses (Ratio)
board.cache_hierarchy.l1d-cache-0.ReadReq.missRate::total     0.010783                       # miss rate for ReadReq accesses (Ratio)
board.cache_hierarchy.l1d-cache-0.ReadReq.avgMissLatency::processor.cores.core.data 14026.361016                       # average ReadReq miss latency ((Tick/Count))
board.cache_hierarchy.l1d-cache-0.ReadReq.avgMissLatency::total 14026.361016                       # average ReadReq miss latency ((Tick/Count))
board.cache_hierarchy.l1d-cache-0.ReadReq.mshrMisses::processor.cores.core.data       295588                       # number of ReadReq MSHR misses (Count)
board.cache_hierarchy.l1d-cache-0.ReadReq.mshrMisses::total       295588                       # number of ReadReq MSHR misses (Count)
board.cache_hierarchy.l1d-cache-0.ReadReq.mshrMissLatency::processor.cores.core.data   3850436000                       # number of ReadReq MSHR miss ticks (Tick)
board.cache_hierarchy.l1d-cache-0.ReadReq.mshrMissLatency::total   3850436000                       # number of ReadReq MSHR miss ticks (Tick)
board.cache_hierarchy.l1d-cache-0.ReadReq.mshrMissRate::processor.cores.core.data     0.010783                       # mshr miss rate for ReadReq accesses (Ratio)
board.cache_hierarchy.l1d-cache-0.ReadReq.mshrMissRate::total     0.010783                       # mshr miss rate for ReadReq accesses (Ratio)
board.cache_hierarchy.l1d-cache-0.ReadReq.avgMshrMissLatency::processor.cores.core.data 13026.361016                       # average ReadReq mshr miss latency ((Tick/Count))
board.cache_hierarchy.l1d-cache-0.ReadReq.avgMshrMissLatency::total 13026.361016                       # average ReadReq mshr miss latency ((Tick/Count))
board.cache_hierarchy.l1d-cache-0.StoreCondReq.hits::processor.cores.core.data            8                       # number of StoreCondReq hits (Count)
board.cache_hierarchy.l1d-cache-0.StoreCondReq.hits::total            8                       # number of StoreCondReq hits (Count)
board.cache_hierarchy.l1d-cache-0.StoreCondReq.accesses::processor.cores.core.data            8                       # number of StoreCondReq accesses(hits+misses) (Count)
board.cache_hierarchy.l1d-cache-0.StoreCondReq.accesses::total            8                       # number of StoreCondReq accesses(hits+misses) (Count)
board.cache_hierarchy.l1d-cache-0.SwapReq.hits::processor.cores.core.data           18                       # number of SwapReq hits (Count)
board.cache_hierarchy.l1d-cache-0.SwapReq.hits::total           18                       # number of SwapReq hits (Count)
board.cache_hierarchy.l1d-cache-0.SwapReq.misses::processor.cores.core.data            1                       # number of SwapReq misses (Count)
board.cache_hierarchy.l1d-cache-0.SwapReq.misses::total            1                       # number of SwapReq misses (Count)
board.cache_hierarchy.l1d-cache-0.SwapReq.missLatency::processor.cores.core.data        64000                       # number of SwapReq miss ticks (Tick)
board.cache_hierarchy.l1d-cache-0.SwapReq.missLatency::total        64000                       # number of SwapReq miss ticks (Tick)
board.cache_hierarchy.l1d-cache-0.SwapReq.accesses::processor.cores.core.data           19                       # number of SwapReq accesses(hits+misses) (Count)
board.cache_hierarchy.l1d-cache-0.SwapReq.accesses::total           19                       # number of SwapReq accesses(hits+misses) (Count)
board.cache_hierarchy.l1d-cache-0.SwapReq.missRate::processor.cores.core.data     0.052632                       # miss rate for SwapReq accesses (Ratio)
board.cache_hierarchy.l1d-cache-0.SwapReq.missRate::total     0.052632                       # miss rate for SwapReq accesses (Ratio)
board.cache_hierarchy.l1d-cache-0.SwapReq.avgMissLatency::processor.cores.core.data        64000                       # average SwapReq miss latency ((Tick/Count))
board.cache_hierarchy.l1d-cache-0.SwapReq.avgMissLatency::total        64000                       # average SwapReq miss latency ((Tick/Count))
board.cache_hierarchy.l1d-cache-0.SwapReq.mshrMisses::processor.cores.core.data            1                       # number of SwapReq MSHR misses (Count)
board.cache_hierarchy.l1d-cache-0.SwapReq.mshrMisses::total            1                       # number of SwapReq MSHR misses (Count)
board.cache_hierarchy.l1d-cache-0.SwapReq.mshrMissLatency::processor.cores.core.data        63000                       # number of SwapReq MSHR miss ticks (Tick)
board.cache_hierarchy.l1d-cache-0.SwapReq.mshrMissLatency::total        63000                       # number of SwapReq MSHR miss ticks (Tick)
board.cache_hierarchy.l1d-cache-0.SwapReq.mshrMissRate::processor.cores.core.data     0.052632                       # mshr miss rate for SwapReq accesses (Ratio)
board.cache_hierarchy.l1d-cache-0.SwapReq.mshrMissRate::total     0.052632                       # mshr miss rate for SwapReq accesses (Ratio)
board.cache_hierarchy.l1d-cache-0.SwapReq.avgMshrMissLatency::processor.cores.core.data        63000                       # average SwapReq mshr miss latency ((Tick/Count))
board.cache_hierarchy.l1d-cache-0.SwapReq.avgMshrMissLatency::total        63000                       # average SwapReq mshr miss latency ((Tick/Count))
board.cache_hierarchy.l1d-cache-0.WriteReq.hits::processor.cores.core.data      4277948                       # number of WriteReq hits (Count)
board.cache_hierarchy.l1d-cache-0.WriteReq.hits::total      4277948                       # number of WriteReq hits (Count)
board.cache_hierarchy.l1d-cache-0.WriteReq.misses::processor.cores.core.data          129                       # number of WriteReq misses (Count)
board.cache_hierarchy.l1d-cache-0.WriteReq.misses::total          129                       # number of WriteReq misses (Count)
board.cache_hierarchy.l1d-cache-0.WriteReq.missLatency::processor.cores.core.data      9951000                       # number of WriteReq miss ticks (Tick)
board.cache_hierarchy.l1d-cache-0.WriteReq.missLatency::total      9951000                       # number of WriteReq miss ticks (Tick)
board.cache_hierarchy.l1d-cache-0.WriteReq.accesses::processor.cores.core.data      4278077                       # number of WriteReq accesses(hits+misses) (Count)
board.cache_hierarchy.l1d-cache-0.WriteReq.accesses::total      4278077                       # number of WriteReq accesses(hits+misses) (Count)
board.cache_hierarchy.l1d-cache-0.WriteReq.missRate::processor.cores.core.data     0.000030                       # miss rate for WriteReq accesses (Ratio)
board.cache_hierarchy.l1d-cache-0.WriteReq.missRate::total     0.000030                       # miss rate for WriteReq accesses (Ratio)
board.cache_hierarchy.l1d-cache-0.WriteReq.avgMissLatency::processor.cores.core.data 77139.534884                       # average WriteReq miss latency ((Tick/Count))
board.cache_hierarchy.l1d-cache-0.WriteReq.avgMissLatency::total 77139.534884                       # average WriteReq miss latency ((Tick/Count))
board.cache_hierarchy.l1d-cache-0.WriteReq.mshrMisses::processor.cores.core.data          129                       # number of WriteReq MSHR misses (Count)
board.cache_hierarchy.l1d-cache-0.WriteReq.mshrMisses::total          129                       # number of WriteReq MSHR misses (Count)
board.cache_hierarchy.l1d-cache-0.WriteReq.mshrMissLatency::processor.cores.core.data      9822000                       # number of WriteReq MSHR miss ticks (Tick)
board.cache_hierarchy.l1d-cache-0.WriteReq.mshrMissLatency::total      9822000                       # number of WriteReq MSHR miss ticks (Tick)
board.cache_hierarchy.l1d-cache-0.WriteReq.mshrMissRate::processor.cores.core.data     0.000030                       # mshr miss rate for WriteReq accesses (Ratio)
board.cache_hierarchy.l1d-cache-0.WriteReq.mshrMissRate::total     0.000030                       # mshr miss rate for WriteReq accesses (Ratio)
board.cache_hierarchy.l1d-cache-0.WriteReq.avgMshrMissLatency::processor.cores.core.data 76139.534884                       # average WriteReq mshr miss latency ((Tick/Count))
board.cache_hierarchy.l1d-cache-0.WriteReq.avgMshrMissLatency::total 76139.534884                       # average WriteReq mshr miss latency ((Tick/Count))
board.cache_hierarchy.l1d-cache-0.power_state.pwrStateResidencyTicks::UNDEFINED 166510509000                       # Cumulative time (in ticks) in various power states (Tick)
board.cache_hierarchy.l1d-cache-0.prefetcher.demandMshrMisses       295717                       # demands not covered by prefetchs (Count)
board.cache_hierarchy.l1d-cache-0.prefetcher.pfIssued      5786968                       # number of hwpf issued (Count)
board.cache_hierarchy.l1d-cache-0.prefetcher.pfUnused        65529                       # number of HardPF blocks evicted w/o reference (Count)
board.cache_hierarchy.l1d-cache-0.prefetcher.pfUseful      1822695                       # number of useful prefetch (Count)
board.cache_hierarchy.l1d-cache-0.prefetcher.pfUsefulButMiss            0                       # number of hit on prefetch but cache block is not in an usable state (Count)
board.cache_hierarchy.l1d-cache-0.prefetcher.accuracy     0.314965                       # accuracy of the prefetcher (Count)
board.cache_hierarchy.l1d-cache-0.prefetcher.coverage     0.860406                       # coverage brought by this prefetcher (Count)
board.cache_hierarchy.l1d-cache-0.prefetcher.pfHitInCache      3898705                       # number of prefetches hitting in cache (Count)
board.cache_hierarchy.l1d-cache-0.prefetcher.pfHitInMSHR            0                       # number of prefetches hitting in a MSHR (Count)
board.cache_hierarchy.l1d-cache-0.prefetcher.pfHitInWB            0                       # number of prefetches hit in the Write Buffer (Count)
board.cache_hierarchy.l1d-cache-0.prefetcher.pfLate      3898705                       # number of late prefetches (hitting in cache, MSHR or WB) (Count)
board.cache_hierarchy.l1d-cache-0.prefetcher.pfIdentified      5786968                       # number of prefetch candidates identified (Count)
board.cache_hierarchy.l1d-cache-0.prefetcher.pfBufferHit            0                       # number of redundant prefetches already in prefetch queue (Count)
board.cache_hierarchy.l1d-cache-0.prefetcher.pfInCache            0                       # number of redundant prefetches already in cache/mshr dropped (Count)
board.cache_hierarchy.l1d-cache-0.prefetcher.pfRemovedDemand            0                       # number of prefetches dropped due to a demand for the same address (Count)
board.cache_hierarchy.l1d-cache-0.prefetcher.pfRemovedFull            0                       # number of prefetches dropped due to prefetch queue size (Count)
board.cache_hierarchy.l1d-cache-0.prefetcher.pfSpanPage      2622240                       # number of prefetches that crossed the page (Count)
board.cache_hierarchy.l1d-cache-0.prefetcher.pfUsefulSpanPage      2622079                       # number of prefetches that is useful and crossed the page (Count)
board.cache_hierarchy.l1d-cache-0.prefetcher.power_state.pwrStateResidencyTicks::UNDEFINED 166510509000                       # Cumulative time (in ticks) in various power states (Tick)
board.cache_hierarchy.l1d-cache-0.tags.tagsInUse   255.966299                       # Average ticks per tags in use ((Tick/Count))
board.cache_hierarchy.l1d-cache-0.tags.totalRefs     33578930                       # Total number of references to valid blocks. (Count)
board.cache_hierarchy.l1d-cache-0.tags.sampledRefs      2183984                       # Sample count of references to valid blocks. (Count)
board.cache_hierarchy.l1d-cache-0.tags.avgRefs    15.375081                       # Average number of references to valid blocks. ((Count/Count))
board.cache_hierarchy.l1d-cache-0.tags.warmupTick       233000                       # The tick when the warmup percentage was hit. (Tick)
board.cache_hierarchy.l1d-cache-0.tags.occupancies::cache_hierarchy.l1d-cache-0.prefetcher   218.862426                       # Average occupied blocks per tick, per requestor ((Count/Tick))
board.cache_hierarchy.l1d-cache-0.tags.occupancies::processor.cores.core.data    37.103873                       # Average occupied blocks per tick, per requestor ((Count/Tick))
board.cache_hierarchy.l1d-cache-0.tags.avgOccs::cache_hierarchy.l1d-cache-0.prefetcher     0.854931                       # Average percentage of cache occupancy ((Ratio/Tick))
board.cache_hierarchy.l1d-cache-0.tags.avgOccs::processor.cores.core.data     0.144937                       # Average percentage of cache occupancy ((Ratio/Tick))
board.cache_hierarchy.l1d-cache-0.tags.avgOccs::total     0.999868                       # Average percentage of cache occupancy ((Ratio/Tick))
board.cache_hierarchy.l1d-cache-0.tags.occupanciesTaskId::1022          150                       # Occupied blocks per task id (Count)
board.cache_hierarchy.l1d-cache-0.tags.occupanciesTaskId::1024          106                       # Occupied blocks per task id (Count)
board.cache_hierarchy.l1d-cache-0.tags.ageTaskId_1022::1           16                       # Occupied blocks per task id, per block age (Count)
board.cache_hierarchy.l1d-cache-0.tags.ageTaskId_1022::2          116                       # Occupied blocks per task id, per block age (Count)
board.cache_hierarchy.l1d-cache-0.tags.ageTaskId_1022::3           18                       # Occupied blocks per task id, per block age (Count)
board.cache_hierarchy.l1d-cache-0.tags.ageTaskId_1024::0           43                       # Occupied blocks per task id, per block age (Count)
board.cache_hierarchy.l1d-cache-0.tags.ageTaskId_1024::1           40                       # Occupied blocks per task id, per block age (Count)
board.cache_hierarchy.l1d-cache-0.tags.ageTaskId_1024::2           21                       # Occupied blocks per task id, per block age (Count)
board.cache_hierarchy.l1d-cache-0.tags.ageTaskId_1024::3            1                       # Occupied blocks per task id, per block age (Count)
board.cache_hierarchy.l1d-cache-0.tags.ageTaskId_1024::4            1                       # Occupied blocks per task id, per block age (Count)
board.cache_hierarchy.l1d-cache-0.tags.ratioOccsTaskId::1022     0.585938                       # Ratio of occupied blocks and all blocks, per task id (Ratio)
board.cache_hierarchy.l1d-cache-0.tags.ratioOccsTaskId::1024     0.414062                       # Ratio of occupied blocks and all blocks, per task id (Ratio)
board.cache_hierarchy.l1d-cache-0.tags.tagAccesses    255709320                       # Number of tag accesses (Count)
board.cache_hierarchy.l1d-cache-0.tags.dataAccesses    255709320                       # Number of data accesses (Count)
board.cache_hierarchy.l1d-cache-0.tags.power_state.pwrStateResidencyTicks::UNDEFINED 166510509000                       # Cumulative time (in ticks) in various power states (Tick)
board.cache_hierarchy.l1i-cache-0.demandHits::processor.cores.core.inst    130937579                       # number of demand (read+write) hits (Count)
board.cache_hierarchy.l1i-cache-0.demandHits::total    130937579                       # number of demand (read+write) hits (Count)
board.cache_hierarchy.l1i-cache-0.overallHits::processor.cores.core.inst    130937579                       # number of overall hits (Count)
board.cache_hierarchy.l1i-cache-0.overallHits::total    130937579                       # number of overall hits (Count)
board.cache_hierarchy.l1i-cache-0.demandMisses::processor.cores.core.inst          306                       # number of demand (read+write) misses (Count)
board.cache_hierarchy.l1i-cache-0.demandMisses::total          306                       # number of demand (read+write) misses (Count)
board.cache_hierarchy.l1i-cache-0.overallMisses::processor.cores.core.inst          306                       # number of overall misses (Count)
board.cache_hierarchy.l1i-cache-0.overallMisses::total          306                       # number of overall misses (Count)
board.cache_hierarchy.l1i-cache-0.demandMissLatency::processor.cores.core.inst     21373000                       # number of demand (read+write) miss ticks (Tick)
board.cache_hierarchy.l1i-cache-0.demandMissLatency::total     21373000                       # number of demand (read+write) miss ticks (Tick)
board.cache_hierarchy.l1i-cache-0.overallMissLatency::processor.cores.core.inst     21373000                       # number of overall miss ticks (Tick)
board.cache_hierarchy.l1i-cache-0.overallMissLatency::total     21373000                       # number of overall miss ticks (Tick)
board.cache_hierarchy.l1i-cache-0.demandAccesses::processor.cores.core.inst    130937885                       # number of demand (read+write) accesses (Count)
board.cache_hierarchy.l1i-cache-0.demandAccesses::total    130937885                       # number of demand (read+write) accesses (Count)
board.cache_hierarchy.l1i-cache-0.overallAccesses::processor.cores.core.inst    130937885                       # number of overall (read+write) accesses (Count)
board.cache_hierarchy.l1i-cache-0.overallAccesses::total    130937885                       # number of overall (read+write) accesses (Count)
board.cache_hierarchy.l1i-cache-0.demandMissRate::processor.cores.core.inst     0.000002                       # miss rate for demand accesses (Ratio)
board.cache_hierarchy.l1i-cache-0.demandMissRate::total     0.000002                       # miss rate for demand accesses (Ratio)
board.cache_hierarchy.l1i-cache-0.overallMissRate::processor.cores.core.inst     0.000002                       # miss rate for overall accesses (Ratio)
board.cache_hierarchy.l1i-cache-0.overallMissRate::total     0.000002                       # miss rate for overall accesses (Ratio)
board.cache_hierarchy.l1i-cache-0.demandAvgMissLatency::processor.cores.core.inst 69846.405229                       # average overall miss latency in ticks ((Tick/Count))
board.cache_hierarchy.l1i-cache-0.demandAvgMissLatency::total 69846.405229                       # average overall miss latency in ticks ((Tick/Count))
board.cache_hierarchy.l1i-cache-0.overallAvgMissLatency::processor.cores.core.inst 69846.405229                       # average overall miss latency ((Tick/Count))
board.cache_hierarchy.l1i-cache-0.overallAvgMissLatency::total 69846.405229                       # average overall miss latency ((Tick/Count))
board.cache_hierarchy.l1i-cache-0.blockedCycles::no_mshrs            0                       # number of cycles access was blocked (Cycle)
board.cache_hierarchy.l1i-cache-0.blockedCycles::no_targets            0                       # number of cycles access was blocked (Cycle)
board.cache_hierarchy.l1i-cache-0.blockedCauses::no_mshrs            0                       # number of times access was blocked (Count)
board.cache_hierarchy.l1i-cache-0.blockedCauses::no_targets            0                       # number of times access was blocked (Count)
board.cache_hierarchy.l1i-cache-0.avgBlocked::no_mshrs          nan                       # average number of cycles each access was blocked ((Cycle/Count))
board.cache_hierarchy.l1i-cache-0.avgBlocked::no_targets          nan                       # average number of cycles each access was blocked ((Cycle/Count))
board.cache_hierarchy.l1i-cache-0.writebacks::writebacks           58                       # number of writebacks (Count)
board.cache_hierarchy.l1i-cache-0.writebacks::total           58                       # number of writebacks (Count)
board.cache_hierarchy.l1i-cache-0.demandMshrMisses::processor.cores.core.inst          306                       # number of demand (read+write) MSHR misses (Count)
board.cache_hierarchy.l1i-cache-0.demandMshrMisses::total          306                       # number of demand (read+write) MSHR misses (Count)
board.cache_hierarchy.l1i-cache-0.overallMshrMisses::processor.cores.core.inst          306                       # number of overall MSHR misses (Count)
board.cache_hierarchy.l1i-cache-0.overallMshrMisses::total          306                       # number of overall MSHR misses (Count)
board.cache_hierarchy.l1i-cache-0.demandMshrMissLatency::processor.cores.core.inst     21067000                       # number of demand (read+write) MSHR miss ticks (Tick)
board.cache_hierarchy.l1i-cache-0.demandMshrMissLatency::total     21067000                       # number of demand (read+write) MSHR miss ticks (Tick)
board.cache_hierarchy.l1i-cache-0.overallMshrMissLatency::processor.cores.core.inst     21067000                       # number of overall MSHR miss ticks (Tick)
board.cache_hierarchy.l1i-cache-0.overallMshrMissLatency::total     21067000                       # number of overall MSHR miss ticks (Tick)
board.cache_hierarchy.l1i-cache-0.demandMshrMissRate::processor.cores.core.inst     0.000002                       # mshr miss ratio for demand accesses (Ratio)
board.cache_hierarchy.l1i-cache-0.demandMshrMissRate::total     0.000002                       # mshr miss ratio for demand accesses (Ratio)
board.cache_hierarchy.l1i-cache-0.overallMshrMissRate::processor.cores.core.inst     0.000002                       # mshr miss ratio for overall accesses (Ratio)
board.cache_hierarchy.l1i-cache-0.overallMshrMissRate::total     0.000002                       # mshr miss ratio for overall accesses (Ratio)
board.cache_hierarchy.l1i-cache-0.demandAvgMshrMissLatency::processor.cores.core.inst 68846.405229                       # average overall mshr miss latency ((Tick/Count))
board.cache_hierarchy.l1i-cache-0.demandAvgMshrMissLatency::total 68846.405229                       # average overall mshr miss latency ((Tick/Count))
board.cache_hierarchy.l1i-cache-0.overallAvgMshrMissLatency::processor.cores.core.inst 68846.405229                       # average overall mshr miss latency ((Tick/Count))
board.cache_hierarchy.l1i-cache-0.overallAvgMshrMissLatency::total 68846.405229                       # average overall mshr miss latency ((Tick/Count))
board.cache_hierarchy.l1i-cache-0.replacements           58                       # number of replacements (Count)
board.cache_hierarchy.l1i-cache-0.ReadReq.hits::processor.cores.core.inst    130937579                       # number of ReadReq hits (Count)
board.cache_hierarchy.l1i-cache-0.ReadReq.hits::total    130937579                       # number of ReadReq hits (Count)
board.cache_hierarchy.l1i-cache-0.ReadReq.misses::processor.cores.core.inst          306                       # number of ReadReq misses (Count)
board.cache_hierarchy.l1i-cache-0.ReadReq.misses::total          306                       # number of ReadReq misses (Count)
board.cache_hierarchy.l1i-cache-0.ReadReq.missLatency::processor.cores.core.inst     21373000                       # number of ReadReq miss ticks (Tick)
board.cache_hierarchy.l1i-cache-0.ReadReq.missLatency::total     21373000                       # number of ReadReq miss ticks (Tick)
board.cache_hierarchy.l1i-cache-0.ReadReq.accesses::processor.cores.core.inst    130937885                       # number of ReadReq accesses(hits+misses) (Count)
board.cache_hierarchy.l1i-cache-0.ReadReq.accesses::total    130937885                       # number of ReadReq accesses(hits+misses) (Count)
board.cache_hierarchy.l1i-cache-0.ReadReq.missRate::processor.cores.core.inst     0.000002                       # miss rate for ReadReq accesses (Ratio)
board.cache_hierarchy.l1i-cache-0.ReadReq.missRate::total     0.000002                       # miss rate for ReadReq accesses (Ratio)
board.cache_hierarchy.l1i-cache-0.ReadReq.avgMissLatency::processor.cores.core.inst 69846.405229                       # average ReadReq miss latency ((Tick/Count))
board.cache_hierarchy.l1i-cache-0.ReadReq.avgMissLatency::total 69846.405229                       # average ReadReq miss latency ((Tick/Count))
board.cache_hierarchy.l1i-cache-0.ReadReq.mshrMisses::processor.cores.core.inst          306                       # number of ReadReq MSHR misses (Count)
board.cache_hierarchy.l1i-cache-0.ReadReq.mshrMisses::total          306                       # number of ReadReq MSHR misses (Count)
board.cache_hierarchy.l1i-cache-0.ReadReq.mshrMissLatency::processor.cores.core.inst     21067000                       # number of ReadReq MSHR miss ticks (Tick)
board.cache_hierarchy.l1i-cache-0.ReadReq.mshrMissLatency::total     21067000                       # number of ReadReq MSHR miss ticks (Tick)
board.cache_hierarchy.l1i-cache-0.ReadReq.mshrMissRate::processor.cores.core.inst     0.000002                       # mshr miss rate for ReadReq accesses (Ratio)
board.cache_hierarchy.l1i-cache-0.ReadReq.mshrMissRate::total     0.000002                       # mshr miss rate for ReadReq accesses (Ratio)
board.cache_hierarchy.l1i-cache-0.ReadReq.avgMshrMissLatency::processor.cores.core.inst 68846.405229                       # average ReadReq mshr miss latency ((Tick/Count))
board.cache_hierarchy.l1i-cache-0.ReadReq.avgMshrMissLatency::total 68846.405229                       # average ReadReq mshr miss latency ((Tick/Count))
board.cache_hierarchy.l1i-cache-0.power_state.pwrStateResidencyTicks::UNDEFINED 166510509000                       # Cumulative time (in ticks) in various power states (Tick)
board.cache_hierarchy.l1i-cache-0.prefetcher.demandMshrMisses          306                       # demands not covered by prefetchs (Count)
board.cache_hierarchy.l1i-cache-0.prefetcher.pfIssued            0                       # number of hwpf issued (Count)
board.cache_hierarchy.l1i-cache-0.prefetcher.pfUseful            0                       # number of useful prefetch (Count)
board.cache_hierarchy.l1i-cache-0.prefetcher.pfUsefulButMiss            0                       # number of hit on prefetch but cache block is not in an usable state (Count)
board.cache_hierarchy.l1i-cache-0.prefetcher.accuracy          nan                       # accuracy of the prefetcher (Count)
board.cache_hierarchy.l1i-cache-0.prefetcher.coverage            0                       # coverage brought by this prefetcher (Count)
board.cache_hierarchy.l1i-cache-0.prefetcher.pfHitInCache            0                       # number of prefetches hitting in cache (Count)
board.cache_hierarchy.l1i-cache-0.prefetcher.pfHitInMSHR            0                       # number of prefetches hitting in a MSHR (Count)
board.cache_hierarchy.l1i-cache-0.prefetcher.pfHitInWB            0                       # number of prefetches hit in the Write Buffer (Count)
board.cache_hierarchy.l1i-cache-0.prefetcher.pfLate            0                       # number of late prefetches (hitting in cache, MSHR or WB) (Count)
board.cache_hierarchy.l1i-cache-0.prefetcher.pfIdentified            0                       # number of prefetch candidates identified (Count)
board.cache_hierarchy.l1i-cache-0.prefetcher.pfBufferHit            0                       # number of redundant prefetches already in prefetch queue (Count)
board.cache_hierarchy.l1i-cache-0.prefetcher.pfInCache            0                       # number of redundant prefetches already in cache/mshr dropped (Count)
board.cache_hierarchy.l1i-cache-0.prefetcher.pfRemovedDemand            0                       # number of prefetches dropped due to a demand for the same address (Count)
board.cache_hierarchy.l1i-cache-0.prefetcher.pfRemovedFull            0                       # number of prefetches dropped due to prefetch queue size (Count)
board.cache_hierarchy.l1i-cache-0.prefetcher.pfSpanPage            0                       # number of prefetches that crossed the page (Count)
board.cache_hierarchy.l1i-cache-0.prefetcher.pfUsefulSpanPage            0                       # number of prefetches that is useful and crossed the page (Count)
board.cache_hierarchy.l1i-cache-0.prefetcher.power_state.pwrStateResidencyTicks::UNDEFINED 166510509000                       # Cumulative time (in ticks) in various power states (Tick)
board.cache_hierarchy.l1i-cache-0.tags.tagsInUse   198.963926                       # Average ticks per tags in use ((Tick/Count))
board.cache_hierarchy.l1i-cache-0.tags.totalRefs    130937885                       # Total number of references to valid blocks. (Count)
board.cache_hierarchy.l1i-cache-0.tags.sampledRefs          306                       # Sample count of references to valid blocks. (Count)
board.cache_hierarchy.l1i-cache-0.tags.avgRefs 427901.584967                       # Average number of references to valid blocks. ((Count/Count))
board.cache_hierarchy.l1i-cache-0.tags.warmupTick        79000                       # The tick when the warmup percentage was hit. (Tick)
board.cache_hierarchy.l1i-cache-0.tags.occupancies::processor.cores.core.inst   198.963926                       # Average occupied blocks per tick, per requestor ((Count/Tick))
board.cache_hierarchy.l1i-cache-0.tags.avgOccs::processor.cores.core.inst     0.777203                       # Average percentage of cache occupancy ((Ratio/Tick))
board.cache_hierarchy.l1i-cache-0.tags.avgOccs::total     0.777203                       # Average percentage of cache occupancy ((Ratio/Tick))
board.cache_hierarchy.l1i-cache-0.tags.occupanciesTaskId::1024          248                       # Occupied blocks per task id (Count)
board.cache_hierarchy.l1i-cache-0.tags.ageTaskId_1024::0           75                       # Occupied blocks per task id, per block age (Count)
board.cache_hierarchy.l1i-cache-0.tags.ageTaskId_1024::1           28                       # Occupied blocks per task id, per block age (Count)
board.cache_hierarchy.l1i-cache-0.tags.ageTaskId_1024::4          145                       # Occupied blocks per task id, per block age (Count)
board.cache_hierarchy.l1i-cache-0.tags.ratioOccsTaskId::1024     0.968750                       # Ratio of occupied blocks and all blocks, per task id (Ratio)
board.cache_hierarchy.l1i-cache-0.tags.tagAccesses   1047503386                       # Number of tag accesses (Count)
board.cache_hierarchy.l1i-cache-0.tags.dataAccesses   1047503386                       # Number of data accesses (Count)
board.cache_hierarchy.l1i-cache-0.tags.power_state.pwrStateResidencyTicks::UNDEFINED 166510509000                       # Cumulative time (in ticks) in various power states (Tick)
board.cache_hierarchy.l2-cache-0.demandHits::cache_hierarchy.l1d-cache-0.prefetcher      1888029                       # number of demand (read+write) hits (Count)
board.cache_hierarchy.l2-cache-0.demandHits::processor.cores.core.data       295478                       # number of demand (read+write) hits (Count)
board.cache_hierarchy.l2-cache-0.demandHits::total      2183507                       # number of demand (read+write) hits (Count)
board.cache_hierarchy.l2-cache-0.overallHits::cache_hierarchy.l1d-cache-0.prefetcher      1888029                       # number of overall hits (Count)
board.cache_hierarchy.l2-cache-0.overallHits::processor.cores.core.data       295478                       # number of overall hits (Count)
board.cache_hierarchy.l2-cache-0.overallHits::total      2183507                       # number of overall hits (Count)
board.cache_hierarchy.l2-cache-0.demandMisses::cache_hierarchy.l1d-cache-0.prefetcher          234                       # number of demand (read+write) misses (Count)
board.cache_hierarchy.l2-cache-0.demandMisses::processor.cores.core.inst          306                       # number of demand (read+write) misses (Count)
board.cache_hierarchy.l2-cache-0.demandMisses::processor.cores.core.data          243                       # number of demand (read+write) misses (Count)
board.cache_hierarchy.l2-cache-0.demandMisses::total          783                       # number of demand (read+write) misses (Count)
board.cache_hierarchy.l2-cache-0.overallMisses::cache_hierarchy.l1d-cache-0.prefetcher          234                       # number of overall misses (Count)
board.cache_hierarchy.l2-cache-0.overallMisses::processor.cores.core.inst          306                       # number of overall misses (Count)
board.cache_hierarchy.l2-cache-0.overallMisses::processor.cores.core.data          243                       # number of overall misses (Count)
board.cache_hierarchy.l2-cache-0.overallMisses::total          783                       # number of overall misses (Count)
board.cache_hierarchy.l2-cache-0.demandMissLatency::cache_hierarchy.l1d-cache-0.prefetcher     17981976                       # number of demand (read+write) miss ticks (Tick)
board.cache_hierarchy.l2-cache-0.demandMissLatency::processor.cores.core.inst     20443000                       # number of demand (read+write) miss ticks (Tick)
board.cache_hierarchy.l2-cache-0.demandMissLatency::processor.cores.core.data     18545000                       # number of demand (read+write) miss ticks (Tick)
board.cache_hierarchy.l2-cache-0.demandMissLatency::total     56969976                       # number of demand (read+write) miss ticks (Tick)
board.cache_hierarchy.l2-cache-0.overallMissLatency::cache_hierarchy.l1d-cache-0.prefetcher     17981976                       # number of overall miss ticks (Tick)
board.cache_hierarchy.l2-cache-0.overallMissLatency::processor.cores.core.inst     20443000                       # number of overall miss ticks (Tick)
board.cache_hierarchy.l2-cache-0.overallMissLatency::processor.cores.core.data     18545000                       # number of overall miss ticks (Tick)
board.cache_hierarchy.l2-cache-0.overallMissLatency::total     56969976                       # number of overall miss ticks (Tick)
board.cache_hierarchy.l2-cache-0.demandAccesses::cache_hierarchy.l1d-cache-0.prefetcher      1888263                       # number of demand (read+write) accesses (Count)
board.cache_hierarchy.l2-cache-0.demandAccesses::processor.cores.core.inst          306                       # number of demand (read+write) accesses (Count)
board.cache_hierarchy.l2-cache-0.demandAccesses::processor.cores.core.data       295721                       # number of demand (read+write) accesses (Count)
board.cache_hierarchy.l2-cache-0.demandAccesses::total      2184290                       # number of demand (read+write) accesses (Count)
board.cache_hierarchy.l2-cache-0.overallAccesses::cache_hierarchy.l1d-cache-0.prefetcher      1888263                       # number of overall (read+write) accesses (Count)
board.cache_hierarchy.l2-cache-0.overallAccesses::processor.cores.core.inst          306                       # number of overall (read+write) accesses (Count)
board.cache_hierarchy.l2-cache-0.overallAccesses::processor.cores.core.data       295721                       # number of overall (read+write) accesses (Count)
board.cache_hierarchy.l2-cache-0.overallAccesses::total      2184290                       # number of overall (read+write) accesses (Count)
board.cache_hierarchy.l2-cache-0.demandMissRate::cache_hierarchy.l1d-cache-0.prefetcher     0.000124                       # miss rate for demand accesses (Ratio)
board.cache_hierarchy.l2-cache-0.demandMissRate::processor.cores.core.inst            1                       # miss rate for demand accesses (Ratio)
board.cache_hierarchy.l2-cache-0.demandMissRate::processor.cores.core.data     0.000822                       # miss rate for demand accesses (Ratio)
board.cache_hierarchy.l2-cache-0.demandMissRate::total     0.000358                       # miss rate for demand accesses (Ratio)
board.cache_hierarchy.l2-cache-0.overallMissRate::cache_hierarchy.l1d-cache-0.prefetcher     0.000124                       # miss rate for overall accesses (Ratio)
board.cache_hierarchy.l2-cache-0.overallMissRate::processor.cores.core.inst            1                       # miss rate for overall accesses (Ratio)
board.cache_hierarchy.l2-cache-0.overallMissRate::processor.cores.core.data     0.000822                       # miss rate for overall accesses (Ratio)
board.cache_hierarchy.l2-cache-0.overallMissRate::total     0.000358                       # miss rate for overall accesses (Ratio)
board.cache_hierarchy.l2-cache-0.demandAvgMissLatency::cache_hierarchy.l1d-cache-0.prefetcher 76846.051282                       # average overall miss latency in ticks ((Tick/Count))
board.cache_hierarchy.l2-cache-0.demandAvgMissLatency::processor.cores.core.inst 66807.189542                       # average overall miss latency in ticks ((Tick/Count))
board.cache_hierarchy.l2-cache-0.demandAvgMissLatency::processor.cores.core.data 76316.872428                       # average overall miss latency in ticks ((Tick/Count))
board.cache_hierarchy.l2-cache-0.demandAvgMissLatency::total 72758.590038                       # average overall miss latency in ticks ((Tick/Count))
board.cache_hierarchy.l2-cache-0.overallAvgMissLatency::cache_hierarchy.l1d-cache-0.prefetcher 76846.051282                       # average overall miss latency ((Tick/Count))
board.cache_hierarchy.l2-cache-0.overallAvgMissLatency::processor.cores.core.inst 66807.189542                       # average overall miss latency ((Tick/Count))
board.cache_hierarchy.l2-cache-0.overallAvgMissLatency::processor.cores.core.data 76316.872428                       # average overall miss latency ((Tick/Count))
board.cache_hierarchy.l2-cache-0.overallAvgMissLatency::total 72758.590038                       # average overall miss latency ((Tick/Count))
board.cache_hierarchy.l2-cache-0.blockedCycles::no_mshrs            0                       # number of cycles access was blocked (Cycle)
board.cache_hierarchy.l2-cache-0.blockedCycles::no_targets            0                       # number of cycles access was blocked (Cycle)
board.cache_hierarchy.l2-cache-0.blockedCauses::no_mshrs            0                       # number of times access was blocked (Count)
board.cache_hierarchy.l2-cache-0.blockedCauses::no_targets            0                       # number of times access was blocked (Count)
board.cache_hierarchy.l2-cache-0.avgBlocked::no_mshrs          nan                       # average number of cycles each access was blocked ((Cycle/Count))
board.cache_hierarchy.l2-cache-0.avgBlocked::no_targets          nan                       # average number of cycles each access was blocked ((Cycle/Count))
board.cache_hierarchy.l2-cache-0.writebacks::writebacks            3                       # number of writebacks (Count)
board.cache_hierarchy.l2-cache-0.writebacks::total            3                       # number of writebacks (Count)
board.cache_hierarchy.l2-cache-0.demandMshrHits::cache_hierarchy.l1d-cache-0.prefetcher          159                       # number of demand (read+write) MSHR hits (Count)
board.cache_hierarchy.l2-cache-0.demandMshrHits::total          159                       # number of demand (read+write) MSHR hits (Count)
board.cache_hierarchy.l2-cache-0.overallMshrHits::cache_hierarchy.l1d-cache-0.prefetcher          159                       # number of overall MSHR hits (Count)
board.cache_hierarchy.l2-cache-0.overallMshrHits::total          159                       # number of overall MSHR hits (Count)
board.cache_hierarchy.l2-cache-0.demandMshrMisses::cache_hierarchy.l1d-cache-0.prefetcher           75                       # number of demand (read+write) MSHR misses (Count)
board.cache_hierarchy.l2-cache-0.demandMshrMisses::processor.cores.core.inst          306                       # number of demand (read+write) MSHR misses (Count)
board.cache_hierarchy.l2-cache-0.demandMshrMisses::processor.cores.core.data          243                       # number of demand (read+write) MSHR misses (Count)
board.cache_hierarchy.l2-cache-0.demandMshrMisses::total          624                       # number of demand (read+write) MSHR misses (Count)
board.cache_hierarchy.l2-cache-0.overallMshrMisses::cache_hierarchy.l1d-cache-0.prefetcher           75                       # number of overall MSHR misses (Count)
board.cache_hierarchy.l2-cache-0.overallMshrMisses::cache_hierarchy.l2-cache-0.prefetcher         3005                       # number of overall MSHR misses (Count)
board.cache_hierarchy.l2-cache-0.overallMshrMisses::processor.cores.core.inst          306                       # number of overall MSHR misses (Count)
board.cache_hierarchy.l2-cache-0.overallMshrMisses::processor.cores.core.data          243                       # number of overall MSHR misses (Count)
board.cache_hierarchy.l2-cache-0.overallMshrMisses::total         3629                       # number of overall MSHR misses (Count)
board.cache_hierarchy.l2-cache-0.demandMshrMissLatency::cache_hierarchy.l1d-cache-0.prefetcher      7115976                       # number of demand (read+write) MSHR miss ticks (Tick)
board.cache_hierarchy.l2-cache-0.demandMshrMissLatency::processor.cores.core.inst     20137000                       # number of demand (read+write) MSHR miss ticks (Tick)
board.cache_hierarchy.l2-cache-0.demandMshrMissLatency::processor.cores.core.data     18302000                       # number of demand (read+write) MSHR miss ticks (Tick)
board.cache_hierarchy.l2-cache-0.demandMshrMissLatency::total     45554976                       # number of demand (read+write) MSHR miss ticks (Tick)
board.cache_hierarchy.l2-cache-0.overallMshrMissLatency::cache_hierarchy.l1d-cache-0.prefetcher      7115976                       # number of overall MSHR miss ticks (Tick)
board.cache_hierarchy.l2-cache-0.overallMshrMissLatency::cache_hierarchy.l2-cache-0.prefetcher    188110293                       # number of overall MSHR miss ticks (Tick)
board.cache_hierarchy.l2-cache-0.overallMshrMissLatency::processor.cores.core.inst     20137000                       # number of overall MSHR miss ticks (Tick)
board.cache_hierarchy.l2-cache-0.overallMshrMissLatency::processor.cores.core.data     18302000                       # number of overall MSHR miss ticks (Tick)
board.cache_hierarchy.l2-cache-0.overallMshrMissLatency::total    233665269                       # number of overall MSHR miss ticks (Tick)
board.cache_hierarchy.l2-cache-0.demandMshrMissRate::cache_hierarchy.l1d-cache-0.prefetcher     0.000040                       # mshr miss ratio for demand accesses (Ratio)
board.cache_hierarchy.l2-cache-0.demandMshrMissRate::processor.cores.core.inst            1                       # mshr miss ratio for demand accesses (Ratio)
board.cache_hierarchy.l2-cache-0.demandMshrMissRate::processor.cores.core.data     0.000822                       # mshr miss ratio for demand accesses (Ratio)
board.cache_hierarchy.l2-cache-0.demandMshrMissRate::total     0.000286                       # mshr miss ratio for demand accesses (Ratio)
board.cache_hierarchy.l2-cache-0.overallMshrMissRate::cache_hierarchy.l1d-cache-0.prefetcher     0.000040                       # mshr miss ratio for overall accesses (Ratio)
board.cache_hierarchy.l2-cache-0.overallMshrMissRate::cache_hierarchy.l2-cache-0.prefetcher          inf                       # mshr miss ratio for overall accesses (Ratio)
board.cache_hierarchy.l2-cache-0.overallMshrMissRate::processor.cores.core.inst            1                       # mshr miss ratio for overall accesses (Ratio)
board.cache_hierarchy.l2-cache-0.overallMshrMissRate::processor.cores.core.data     0.000822                       # mshr miss ratio for overall accesses (Ratio)
board.cache_hierarchy.l2-cache-0.overallMshrMissRate::total     0.001661                       # mshr miss ratio for overall accesses (Ratio)
board.cache_hierarchy.l2-cache-0.demandAvgMshrMissLatency::cache_hierarchy.l1d-cache-0.prefetcher 94879.680000                       # average overall mshr miss latency ((Tick/Count))
board.cache_hierarchy.l2-cache-0.demandAvgMshrMissLatency::processor.cores.core.inst 65807.189542                       # average overall mshr miss latency ((Tick/Count))
board.cache_hierarchy.l2-cache-0.demandAvgMshrMissLatency::processor.cores.core.data 75316.872428                       # average overall mshr miss latency ((Tick/Count))
board.cache_hierarchy.l2-cache-0.demandAvgMshrMissLatency::total 73004.769231                       # average overall mshr miss latency ((Tick/Count))
board.cache_hierarchy.l2-cache-0.overallAvgMshrMissLatency::cache_hierarchy.l1d-cache-0.prefetcher 94879.680000                       # average overall mshr miss latency ((Tick/Count))
board.cache_hierarchy.l2-cache-0.overallAvgMshrMissLatency::cache_hierarchy.l2-cache-0.prefetcher 62599.099168                       # average overall mshr miss latency ((Tick/Count))
board.cache_hierarchy.l2-cache-0.overallAvgMshrMissLatency::processor.cores.core.inst 65807.189542                       # average overall mshr miss latency ((Tick/Count))
board.cache_hierarchy.l2-cache-0.overallAvgMshrMissLatency::processor.cores.core.data 75316.872428                       # average overall mshr miss latency ((Tick/Count))
board.cache_hierarchy.l2-cache-0.overallAvgMshrMissLatency::total 64388.335354                       # average overall mshr miss latency ((Tick/Count))
board.cache_hierarchy.l2-cache-0.replacements           20                       # number of replacements (Count)
board.cache_hierarchy.l2-cache-0.HardPFReq.mshrMisses::cache_hierarchy.l2-cache-0.prefetcher         3005                       # number of HardPFReq MSHR misses (Count)
board.cache_hierarchy.l2-cache-0.HardPFReq.mshrMisses::total         3005                       # number of HardPFReq MSHR misses (Count)
board.cache_hierarchy.l2-cache-0.HardPFReq.mshrMissLatency::cache_hierarchy.l2-cache-0.prefetcher    188110293                       # number of HardPFReq MSHR miss ticks (Tick)
board.cache_hierarchy.l2-cache-0.HardPFReq.mshrMissLatency::total    188110293                       # number of HardPFReq MSHR miss ticks (Tick)
board.cache_hierarchy.l2-cache-0.HardPFReq.mshrMissRate::cache_hierarchy.l2-cache-0.prefetcher          inf                       # mshr miss rate for HardPFReq accesses (Ratio)
board.cache_hierarchy.l2-cache-0.HardPFReq.mshrMissRate::total          inf                       # mshr miss rate for HardPFReq accesses (Ratio)
board.cache_hierarchy.l2-cache-0.HardPFReq.avgMshrMissLatency::cache_hierarchy.l2-cache-0.prefetcher 62599.099168                       # average HardPFReq mshr miss latency ((Tick/Count))
board.cache_hierarchy.l2-cache-0.HardPFReq.avgMshrMissLatency::total 62599.099168                       # average HardPFReq mshr miss latency ((Tick/Count))
board.cache_hierarchy.l2-cache-0.ReadExReq.hits::processor.cores.core.data            7                       # number of ReadExReq hits (Count)
board.cache_hierarchy.l2-cache-0.ReadExReq.hits::total            7                       # number of ReadExReq hits (Count)
board.cache_hierarchy.l2-cache-0.ReadExReq.misses::processor.cores.core.data          123                       # number of ReadExReq misses (Count)
board.cache_hierarchy.l2-cache-0.ReadExReq.misses::total          123                       # number of ReadExReq misses (Count)
board.cache_hierarchy.l2-cache-0.ReadExReq.missLatency::processor.cores.core.data      9543000                       # number of ReadExReq miss ticks (Tick)
board.cache_hierarchy.l2-cache-0.ReadExReq.missLatency::total      9543000                       # number of ReadExReq miss ticks (Tick)
board.cache_hierarchy.l2-cache-0.ReadExReq.accesses::processor.cores.core.data          130                       # number of ReadExReq accesses(hits+misses) (Count)
board.cache_hierarchy.l2-cache-0.ReadExReq.accesses::total          130                       # number of ReadExReq accesses(hits+misses) (Count)
board.cache_hierarchy.l2-cache-0.ReadExReq.missRate::processor.cores.core.data     0.946154                       # miss rate for ReadExReq accesses (Ratio)
board.cache_hierarchy.l2-cache-0.ReadExReq.missRate::total     0.946154                       # miss rate for ReadExReq accesses (Ratio)
board.cache_hierarchy.l2-cache-0.ReadExReq.avgMissLatency::processor.cores.core.data 77585.365854                       # average ReadExReq miss latency ((Tick/Count))
board.cache_hierarchy.l2-cache-0.ReadExReq.avgMissLatency::total 77585.365854                       # average ReadExReq miss latency ((Tick/Count))
board.cache_hierarchy.l2-cache-0.ReadExReq.mshrMisses::processor.cores.core.data          123                       # number of ReadExReq MSHR misses (Count)
board.cache_hierarchy.l2-cache-0.ReadExReq.mshrMisses::total          123                       # number of ReadExReq MSHR misses (Count)
board.cache_hierarchy.l2-cache-0.ReadExReq.mshrMissLatency::processor.cores.core.data      9420000                       # number of ReadExReq MSHR miss ticks (Tick)
board.cache_hierarchy.l2-cache-0.ReadExReq.mshrMissLatency::total      9420000                       # number of ReadExReq MSHR miss ticks (Tick)
board.cache_hierarchy.l2-cache-0.ReadExReq.mshrMissRate::processor.cores.core.data     0.946154                       # mshr miss rate for ReadExReq accesses (Ratio)
board.cache_hierarchy.l2-cache-0.ReadExReq.mshrMissRate::total     0.946154                       # mshr miss rate for ReadExReq accesses (Ratio)
board.cache_hierarchy.l2-cache-0.ReadExReq.avgMshrMissLatency::processor.cores.core.data 76585.365854                       # average ReadExReq mshr miss latency ((Tick/Count))
board.cache_hierarchy.l2-cache-0.ReadExReq.avgMshrMissLatency::total 76585.365854                       # average ReadExReq mshr miss latency ((Tick/Count))
board.cache_hierarchy.l2-cache-0.ReadSharedReq.hits::cache_hierarchy.l1d-cache-0.prefetcher      1888029                       # number of ReadSharedReq hits (Count)
board.cache_hierarchy.l2-cache-0.ReadSharedReq.hits::processor.cores.core.data       295471                       # number of ReadSharedReq hits (Count)
board.cache_hierarchy.l2-cache-0.ReadSharedReq.hits::total      2183500                       # number of ReadSharedReq hits (Count)
board.cache_hierarchy.l2-cache-0.ReadSharedReq.misses::cache_hierarchy.l1d-cache-0.prefetcher          234                       # number of ReadSharedReq misses (Count)
board.cache_hierarchy.l2-cache-0.ReadSharedReq.misses::processor.cores.core.inst          306                       # number of ReadSharedReq misses (Count)
board.cache_hierarchy.l2-cache-0.ReadSharedReq.misses::processor.cores.core.data          120                       # number of ReadSharedReq misses (Count)
board.cache_hierarchy.l2-cache-0.ReadSharedReq.misses::total          660                       # number of ReadSharedReq misses (Count)
board.cache_hierarchy.l2-cache-0.ReadSharedReq.missLatency::cache_hierarchy.l1d-cache-0.prefetcher     17981976                       # number of ReadSharedReq miss ticks (Tick)
board.cache_hierarchy.l2-cache-0.ReadSharedReq.missLatency::processor.cores.core.inst     20443000                       # number of ReadSharedReq miss ticks (Tick)
board.cache_hierarchy.l2-cache-0.ReadSharedReq.missLatency::processor.cores.core.data      9002000                       # number of ReadSharedReq miss ticks (Tick)
board.cache_hierarchy.l2-cache-0.ReadSharedReq.missLatency::total     47426976                       # number of ReadSharedReq miss ticks (Tick)
board.cache_hierarchy.l2-cache-0.ReadSharedReq.accesses::cache_hierarchy.l1d-cache-0.prefetcher      1888263                       # number of ReadSharedReq accesses(hits+misses) (Count)
board.cache_hierarchy.l2-cache-0.ReadSharedReq.accesses::processor.cores.core.inst          306                       # number of ReadSharedReq accesses(hits+misses) (Count)
board.cache_hierarchy.l2-cache-0.ReadSharedReq.accesses::processor.cores.core.data       295591                       # number of ReadSharedReq accesses(hits+misses) (Count)
board.cache_hierarchy.l2-cache-0.ReadSharedReq.accesses::total      2184160                       # number of ReadSharedReq accesses(hits+misses) (Count)
board.cache_hierarchy.l2-cache-0.ReadSharedReq.missRate::cache_hierarchy.l1d-cache-0.prefetcher     0.000124                       # miss rate for ReadSharedReq accesses (Ratio)
board.cache_hierarchy.l2-cache-0.ReadSharedReq.missRate::processor.cores.core.inst            1                       # miss rate for ReadSharedReq accesses (Ratio)
board.cache_hierarchy.l2-cache-0.ReadSharedReq.missRate::processor.cores.core.data     0.000406                       # miss rate for ReadSharedReq accesses (Ratio)
board.cache_hierarchy.l2-cache-0.ReadSharedReq.missRate::total     0.000302                       # miss rate for ReadSharedReq accesses (Ratio)
board.cache_hierarchy.l2-cache-0.ReadSharedReq.avgMissLatency::cache_hierarchy.l1d-cache-0.prefetcher 76846.051282                       # average ReadSharedReq miss latency ((Tick/Count))
board.cache_hierarchy.l2-cache-0.ReadSharedReq.avgMissLatency::processor.cores.core.inst 66807.189542                       # average ReadSharedReq miss latency ((Tick/Count))
board.cache_hierarchy.l2-cache-0.ReadSharedReq.avgMissLatency::processor.cores.core.data 75016.666667                       # average ReadSharedReq miss latency ((Tick/Count))
board.cache_hierarchy.l2-cache-0.ReadSharedReq.avgMissLatency::total 71859.054545                       # average ReadSharedReq miss latency ((Tick/Count))
board.cache_hierarchy.l2-cache-0.ReadSharedReq.mshrHits::cache_hierarchy.l1d-cache-0.prefetcher          159                       # number of ReadSharedReq MSHR hits (Count)
board.cache_hierarchy.l2-cache-0.ReadSharedReq.mshrHits::total          159                       # number of ReadSharedReq MSHR hits (Count)
board.cache_hierarchy.l2-cache-0.ReadSharedReq.mshrMisses::cache_hierarchy.l1d-cache-0.prefetcher           75                       # number of ReadSharedReq MSHR misses (Count)
board.cache_hierarchy.l2-cache-0.ReadSharedReq.mshrMisses::processor.cores.core.inst          306                       # number of ReadSharedReq MSHR misses (Count)
board.cache_hierarchy.l2-cache-0.ReadSharedReq.mshrMisses::processor.cores.core.data          120                       # number of ReadSharedReq MSHR misses (Count)
board.cache_hierarchy.l2-cache-0.ReadSharedReq.mshrMisses::total          501                       # number of ReadSharedReq MSHR misses (Count)
board.cache_hierarchy.l2-cache-0.ReadSharedReq.mshrMissLatency::cache_hierarchy.l1d-cache-0.prefetcher      7115976                       # number of ReadSharedReq MSHR miss ticks (Tick)
board.cache_hierarchy.l2-cache-0.ReadSharedReq.mshrMissLatency::processor.cores.core.inst     20137000                       # number of ReadSharedReq MSHR miss ticks (Tick)
board.cache_hierarchy.l2-cache-0.ReadSharedReq.mshrMissLatency::processor.cores.core.data      8882000                       # number of ReadSharedReq MSHR miss ticks (Tick)
board.cache_hierarchy.l2-cache-0.ReadSharedReq.mshrMissLatency::total     36134976                       # number of ReadSharedReq MSHR miss ticks (Tick)
board.cache_hierarchy.l2-cache-0.ReadSharedReq.mshrMissRate::cache_hierarchy.l1d-cache-0.prefetcher     0.000040                       # mshr miss rate for ReadSharedReq accesses (Ratio)
board.cache_hierarchy.l2-cache-0.ReadSharedReq.mshrMissRate::processor.cores.core.inst            1                       # mshr miss rate for ReadSharedReq accesses (Ratio)
board.cache_hierarchy.l2-cache-0.ReadSharedReq.mshrMissRate::processor.cores.core.data     0.000406                       # mshr miss rate for ReadSharedReq accesses (Ratio)
board.cache_hierarchy.l2-cache-0.ReadSharedReq.mshrMissRate::total     0.000229                       # mshr miss rate for ReadSharedReq accesses (Ratio)
board.cache_hierarchy.l2-cache-0.ReadSharedReq.avgMshrMissLatency::cache_hierarchy.l1d-cache-0.prefetcher 94879.680000                       # average ReadSharedReq mshr miss latency ((Tick/Count))
board.cache_hierarchy.l2-cache-0.ReadSharedReq.avgMshrMissLatency::processor.cores.core.inst 65807.189542                       # average ReadSharedReq mshr miss latency ((Tick/Count))
board.cache_hierarchy.l2-cache-0.ReadSharedReq.avgMshrMissLatency::processor.cores.core.data 74016.666667                       # average ReadSharedReq mshr miss latency ((Tick/Count))
board.cache_hierarchy.l2-cache-0.ReadSharedReq.avgMshrMissLatency::total 72125.700599                       # average ReadSharedReq mshr miss latency ((Tick/Count))
board.cache_hierarchy.l2-cache-0.WritebackClean.hits::writebacks           58                       # number of WritebackClean hits (Count)
board.cache_hierarchy.l2-cache-0.WritebackClean.hits::total           58                       # number of WritebackClean hits (Count)
board.cache_hierarchy.l2-cache-0.WritebackClean.accesses::writebacks           58                       # number of WritebackClean accesses(hits+misses) (Count)
board.cache_hierarchy.l2-cache-0.WritebackClean.accesses::total           58                       # number of WritebackClean accesses(hits+misses) (Count)
board.cache_hierarchy.l2-cache-0.WritebackDirty.hits::writebacks      2182903                       # number of WritebackDirty hits (Count)
board.cache_hierarchy.l2-cache-0.WritebackDirty.hits::total      2182903                       # number of WritebackDirty hits (Count)
board.cache_hierarchy.l2-cache-0.WritebackDirty.accesses::writebacks      2182903                       # number of WritebackDirty accesses(hits+misses) (Count)
board.cache_hierarchy.l2-cache-0.WritebackDirty.accesses::total      2182903                       # number of WritebackDirty accesses(hits+misses) (Count)
board.cache_hierarchy.l2-cache-0.power_state.pwrStateResidencyTicks::UNDEFINED 166510509000                       # Cumulative time (in ticks) in various power states (Tick)
board.cache_hierarchy.l2-cache-0.prefetcher.demandMshrMisses          624                       # demands not covered by prefetchs (Count)
board.cache_hierarchy.l2-cache-0.prefetcher.pfIssued        11259                       # number of hwpf issued (Count)
board.cache_hierarchy.l2-cache-0.prefetcher.pfUseful         2837                       # number of useful prefetch (Count)
board.cache_hierarchy.l2-cache-0.prefetcher.pfUsefulButMiss            0                       # number of hit on prefetch but cache block is not in an usable state (Count)
board.cache_hierarchy.l2-cache-0.prefetcher.accuracy     0.251976                       # accuracy of the prefetcher (Count)
board.cache_hierarchy.l2-cache-0.prefetcher.coverage     0.819705                       # coverage brought by this prefetcher (Count)
board.cache_hierarchy.l2-cache-0.prefetcher.pfHitInCache         8146                       # number of prefetches hitting in cache (Count)
board.cache_hierarchy.l2-cache-0.prefetcher.pfHitInMSHR          108                       # number of prefetches hitting in a MSHR (Count)
board.cache_hierarchy.l2-cache-0.prefetcher.pfHitInWB            0                       # number of prefetches hit in the Write Buffer (Count)
board.cache_hierarchy.l2-cache-0.prefetcher.pfLate         8254                       # number of late prefetches (hitting in cache, MSHR or WB) (Count)
board.cache_hierarchy.l2-cache-0.prefetcher.pfIdentified        11887                       # number of prefetch candidates identified (Count)
board.cache_hierarchy.l2-cache-0.prefetcher.pfBufferHit          418                       # number of redundant prefetches already in prefetch queue (Count)
board.cache_hierarchy.l2-cache-0.prefetcher.pfInCache            0                       # number of redundant prefetches already in cache/mshr dropped (Count)
board.cache_hierarchy.l2-cache-0.prefetcher.pfRemovedDemand          157                       # number of prefetches dropped due to a demand for the same address (Count)
board.cache_hierarchy.l2-cache-0.prefetcher.pfRemovedFull            0                       # number of prefetches dropped due to prefetch queue size (Count)
board.cache_hierarchy.l2-cache-0.prefetcher.pfSpanPage          485                       # number of prefetches that crossed the page (Count)
board.cache_hierarchy.l2-cache-0.prefetcher.pfUsefulSpanPage          483                       # number of prefetches that is useful and crossed the page (Count)
board.cache_hierarchy.l2-cache-0.prefetcher.power_state.pwrStateResidencyTicks::UNDEFINED 166510509000                       # Cumulative time (in ticks) in various power states (Tick)
board.cache_hierarchy.l2-cache-0.tags.tagsInUse  2962.610103                       # Average ticks per tags in use ((Tick/Count))
board.cache_hierarchy.l2-cache-0.tags.totalRefs      4370922                       # Total number of references to valid blocks. (Count)
board.cache_hierarchy.l2-cache-0.tags.sampledRefs         3634                       # Sample count of references to valid blocks. (Count)
board.cache_hierarchy.l2-cache-0.tags.avgRefs  1202.785360                       # Average number of references to valid blocks. ((Count/Count))
board.cache_hierarchy.l2-cache-0.tags.warmupTick        77000                       # The tick when the warmup percentage was hit. (Tick)
board.cache_hierarchy.l2-cache-0.tags.occupancies::writebacks     0.000204                       # Average occupied blocks per tick, per requestor ((Count/Tick))
board.cache_hierarchy.l2-cache-0.tags.occupancies::cache_hierarchy.l1d-cache-0.prefetcher    66.453079                       # Average occupied blocks per tick, per requestor ((Count/Tick))
board.cache_hierarchy.l2-cache-0.tags.occupancies::cache_hierarchy.l2-cache-0.prefetcher  2503.778736                       # Average occupied blocks per tick, per requestor ((Count/Tick))
board.cache_hierarchy.l2-cache-0.tags.occupancies::processor.cores.core.inst   202.753457                       # Average occupied blocks per tick, per requestor ((Count/Tick))
board.cache_hierarchy.l2-cache-0.tags.occupancies::processor.cores.core.data   189.624627                       # Average occupied blocks per tick, per requestor ((Count/Tick))
board.cache_hierarchy.l2-cache-0.tags.avgOccs::writebacks     0.000000                       # Average percentage of cache occupancy ((Ratio/Tick))
board.cache_hierarchy.l2-cache-0.tags.avgOccs::cache_hierarchy.l1d-cache-0.prefetcher     0.016224                       # Average percentage of cache occupancy ((Ratio/Tick))
board.cache_hierarchy.l2-cache-0.tags.avgOccs::cache_hierarchy.l2-cache-0.prefetcher     0.611274                       # Average percentage of cache occupancy ((Ratio/Tick))
board.cache_hierarchy.l2-cache-0.tags.avgOccs::processor.cores.core.inst     0.049500                       # Average percentage of cache occupancy ((Ratio/Tick))
board.cache_hierarchy.l2-cache-0.tags.avgOccs::processor.cores.core.data     0.046295                       # Average percentage of cache occupancy ((Ratio/Tick))
board.cache_hierarchy.l2-cache-0.tags.avgOccs::total     0.723293                       # Average percentage of cache occupancy ((Ratio/Tick))
board.cache_hierarchy.l2-cache-0.tags.occupanciesTaskId::1022         3077                       # Occupied blocks per task id (Count)
board.cache_hierarchy.l2-cache-0.tags.occupanciesTaskId::1024          537                       # Occupied blocks per task id (Count)
board.cache_hierarchy.l2-cache-0.tags.ageTaskId_1022::2            6                       # Occupied blocks per task id, per block age (Count)
board.cache_hierarchy.l2-cache-0.tags.ageTaskId_1022::3           53                       # Occupied blocks per task id, per block age (Count)
board.cache_hierarchy.l2-cache-0.tags.ageTaskId_1022::4         3018                       # Occupied blocks per task id, per block age (Count)
board.cache_hierarchy.l2-cache-0.tags.ageTaskId_1024::0          105                       # Occupied blocks per task id, per block age (Count)
board.cache_hierarchy.l2-cache-0.tags.ageTaskId_1024::1           48                       # Occupied blocks per task id, per block age (Count)
board.cache_hierarchy.l2-cache-0.tags.ageTaskId_1024::3            1                       # Occupied blocks per task id, per block age (Count)
board.cache_hierarchy.l2-cache-0.tags.ageTaskId_1024::4          383                       # Occupied blocks per task id, per block age (Count)
board.cache_hierarchy.l2-cache-0.tags.ratioOccsTaskId::1022     0.751221                       # Ratio of occupied blocks and all blocks, per task id (Ratio)
board.cache_hierarchy.l2-cache-0.tags.ratioOccsTaskId::1024     0.131104                       # Ratio of occupied blocks and all blocks, per task id (Ratio)
board.cache_hierarchy.l2-cache-0.tags.tagAccesses     69892850                       # Number of tag accesses (Count)
board.cache_hierarchy.l2-cache-0.tags.dataAccesses     69892850                       # Number of data accesses (Count)
[...]
board.processor.cores.core.commitStats0.committedInstType::IntMult      2097155      2.11%     68.06% # Class of committed instruction. (Count)
board.processor.cores.core.commitStats0.committedInstType::IntDiv           10      0.00%     68.06% # Class of committed instruction. (Count)
board.processor.cores.core.commitStats0.committedInstType::FloatAdd            0      0.00%     68.06% # Class of committed instruction. (Count)
board.processor.cores.core.commitStats0.committedInstType::FloatCmp            0      0.00%     68.06% # Class of committed instruction. (Count)
board.processor.cores.core.commitStats0.committedInstType::FloatCvt            0      0.00%     68.06% # Class of committed instruction. (Count)
board.processor.cores.core.commitStats0.committedInstType::FloatMult            0      0.00%     68.06% # Class of committed instruction. (Count)
board.processor.cores.core.commitStats0.committedInstType::FloatMultAcc            0      0.00%     68.06% # Class of committed instruction. (Count)
board.processor.cores.core.commitStats0.committedInstType::FloatDiv            0      0.00%     68.06% # Class of committed instruction. (Count)
board.processor.cores.core.commitStats0.committedInstType::FloatMisc            0      0.00%     68.06% # Class of committed instruction. (Count)
board.processor.cores.core.commitStats0.committedInstType::FloatSqrt            0      0.00%     68.06% # Class of committed instruction. (Count)
board.processor.cores.core.commitStats0.committedInstType::SimdAdd            0      0.00%     68.06% # Class of committed instruction. (Count)
board.processor.cores.core.commitStats0.committedInstType::SimdAddAcc            0      0.00%     68.06% # Class of committed instruction. (Count)
board.processor.cores.core.commitStats0.committedInstType::SimdAlu            0      0.00%     68.06% # Class of committed instruction. (Count)
board.processor.cores.core.commitStats0.committedInstType::SimdCmp            0      0.00%     68.06% # Class of committed instruction. (Count)
board.processor.cores.core.commitStats0.committedInstType::SimdCvt            0      0.00%     68.06% # Class of committed instruction. (Count)
board.processor.cores.core.commitStats0.committedInstType::SimdMisc            0      0.00%     68.06% # Class of committed instruction. (Count)
board.processor.cores.core.commitStats0.committedInstType::SimdMult            0      0.00%     68.06% # Class of committed instruction. (Count)
board.processor.cores.core.commitStats0.committedInstType::SimdMultAcc            0      0.00%     68.06% # Class of committed instruction. (Count)
board.processor.cores.core.commitStats0.committedInstType::SimdMatMultAcc            0      0.00%     68.06% # Class of committed instruction. (Count)
board.processor.cores.core.commitStats0.committedInstType::SimdShift            0      0.00%     68.06% # Class of committed instruction. (Count)
board.processor.cores.core.commitStats0.committedInstType::SimdShiftAcc            0      0.00%     68.06% # Class of committed instruction. (Count)
board.processor.cores.core.commitStats0.committedInstType::SimdDiv            0      0.00%     68.06% # Class of committed instruction. (Count)
board.processor.cores.core.commitStats0.committedInstType::SimdSqrt            0      0.00%     68.06% # Class of committed instruction. (Count)
board.processor.cores.core.commitStats0.committedInstType::SimdFloatAdd            0      0.00%     68.06% # Class of committed instruction. (Count)
board.processor.cores.core.commitStats0.committedInstType::SimdFloatAlu            0      0.00%     68.06% # Class of committed instruction. (Count)
board.processor.cores.core.commitStats0.committedInstType::SimdFloatCmp            0      0.00%     68.06% # Class of committed instruction. (Count)
board.processor.cores.core.commitStats0.committedInstType::SimdFloatCvt            0      0.00%     68.06% # Class of committed instruction. (Count)
board.processor.cores.core.commitStats0.committedInstType::SimdFloatDiv            0      0.00%     68.06% # Class of committed instruction. (Count)
board.processor.cores.core.commitStats0.committedInstType::SimdFloatMisc            0      0.00%     68.06% # Class of committed instruction. (Count)
board.processor.cores.core.commitStats0.committedInstType::SimdFloatMult            0      0.00%     68.06% # Class of committed instruction. (Count)
board.processor.cores.core.commitStats0.committedInstType::SimdFloatMultAcc            0      0.00%     68.06% # Class of committed instruction. (Count)
board.processor.cores.core.commitStats0.committedInstType::SimdFloatMatMultAcc            0      0.00%     68.06% # Class of committed instruction. (Count)
board.processor.cores.core.commitStats0.committedInstType::SimdFloatSqrt            0      0.00%     68.06% # Class of committed instruction. (Count)
board.processor.cores.core.commitStats0.committedInstType::SimdReduceAdd            0      0.00%     68.06% # Class of committed instruction. (Count)
board.processor.cores.core.commitStats0.committedInstType::SimdReduceAlu            0      0.00%     68.06% # Class of committed instruction. (Count)
board.processor.cores.core.commitStats0.committedInstType::SimdReduceCmp            0      0.00%     68.06% # Class of committed instruction. (Count)
board.processor.cores.core.commitStats0.committedInstType::SimdFloatReduceAdd            0      0.00%     68.06% # Class of committed instruction. (Count)
board.processor.cores.core.commitStats0.committedInstType::SimdFloatReduceCmp            0      0.00%     68.06% # Class of committed instruction. (Count)
board.processor.cores.core.commitStats0.committedInstType::SimdAes            0      0.00%     68.06% # Class of committed instruction. (Count)
board.processor.cores.core.commitStats0.committedInstType::SimdAesMix            0      0.00%     68.06% # Class of committed instruction. (Count)
board.processor.cores.core.commitStats0.committedInstType::SimdSha1Hash            0      0.00%     68.06% # Class of committed instruction. (Count)
board.processor.cores.core.commitStats0.committedInstType::SimdSha1Hash2            0      0.00%     68.06% # Class of committed instruction. (Count)
board.processor.cores.core.commitStats0.committedInstType::SimdSha256Hash            0      0.00%     68.06% # Class of committed instruction. (Count)
board.processor.cores.core.commitStats0.committedInstType::SimdSha256Hash2            0      0.00%     68.06% # Class of committed instruction. (Count)
board.processor.cores.core.commitStats0.committedInstType::SimdShaSigma2            0      0.00%     68.06% # Class of committed instruction. (Count)
board.processor.cores.core.commitStats0.committedInstType::SimdShaSigma3            0      0.00%     68.06% # Class of committed instruction. (Count)
board.processor.cores.core.commitStats0.committedInstType::SimdPredAlu            0      0.00%     68.06% # Class of committed instruction. (Count)
board.processor.cores.core.commitStats0.committedInstType::Matrix            0      0.00%     68.06% # Class of committed instruction. (Count)
board.processor.cores.core.commitStats0.committedInstType::MatrixMov            0      0.00%     68.06% # Class of committed instruction. (Count)
board.processor.cores.core.commitStats0.committedInstType::MatrixOP            0      0.00%     68.06% # Class of committed instruction. (Count)
board.processor.cores.core.commitStats0.committedInstType::MemRead     27412582     27.62%     95.69% # Class of committed instruction. (Count)
board.processor.cores.core.commitStats0.committedInstType::MemWrite      4278076      4.31%    100.00% # Class of committed instruction. (Count)
board.processor.cores.core.commitStats0.committedInstType::FloatMemRead            0      0.00%    100.00% # Class of committed instruction. (Count)
board.processor.cores.core.commitStats0.committedInstType::FloatMemWrite           12      0.00%    100.00% # Class of committed instruction. (Count)
board.processor.cores.core.commitStats0.committedInstType::IprAccess            0      0.00%    100.00% # Class of committed instruction. (Count)
board.processor.cores.core.commitStats0.committedInstType::InstPrefetch            0      0.00%    100.00% # Class of committed instruction. (Count)
board.processor.cores.core.commitStats0.committedInstType::SimdUnitStrideLoad            0      0.00%    100.00% # Class of committed instruction. (Count)
board.processor.cores.core.commitStats0.committedInstType::SimdUnitStrideStore            0      0.00%    100.00% # Class of committed instruction. (Count)
board.processor.cores.core.commitStats0.committedInstType::SimdUnitStrideMaskLoad            0      0.00%    100.00% # Class of committed instruction. (Count)
board.processor.cores.core.commitStats0.committedInstType::SimdUnitStrideMaskStore            0      0.00%    100.00% # Class of committed instruction. (Count)
board.processor.cores.core.commitStats0.committedInstType::SimdStridedLoad            0      0.00%    100.00% # Class of committed instruction. (Count)
board.processor.cores.core.commitStats0.committedInstType::SimdStridedStore            0      0.00%    100.00% # Class of committed instruction. (Count)
board.processor.cores.core.commitStats0.committedInstType::SimdIndexedLoad            0      0.00%    100.00% # Class of committed instruction. (Count)
board.processor.cores.core.commitStats0.committedInstType::SimdIndexedStore            0      0.00%    100.00% # Class of committed instruction. (Count)
board.processor.cores.core.commitStats0.committedInstType::SimdWholeRegisterLoad            0      0.00%    100.00% # Class of committed instruction. (Count)
board.processor.cores.core.commitStats0.committedInstType::SimdWholeRegisterStore            0      0.00%    100.00% # Class of committed instruction. (Count)
board.processor.cores.core.commitStats0.committedInstType::SimdUnitStrideFaultOnlyFirstLoad            0      0.00%    100.00% # Class of committed instruction. (Count)
board.processor.cores.core.commitStats0.committedInstType::SimdUnitStrideSegmentedLoad            0      0.00%    100.00% # Class of committed instruction. (Count)
board.processor.cores.core.commitStats0.committedInstType::SimdUnitStrideSegmentedStore            0      0.00%    100.00% # Class of committed instruction. (Count)
board.processor.cores.core.commitStats0.committedInstType::SimdExt            0      0.00%    100.00% # Class of committed instruction. (Count)
board.processor.cores.core.commitStats0.committedInstType::SimdFloatExt            0      0.00%    100.00% # Class of committed instruction. (Count)
board.processor.cores.core.commitStats0.committedInstType::SimdConfig            0      0.00%    100.00% # Class of committed instruction. (Count)
board.processor.cores.core.commitStats0.committedInstType::total     99232200                       # Class of committed instruction. (Count)
board.processor.cores.core.commitStats0.committedControl::IsControl      2164949                       # Class of control type instructions committed (Count)
board.processor.cores.core.commitStats0.committedControl::IsDirectControl      2164787                       # Class of control type instructions committed (Count)
board.processor.cores.core.commitStats0.committedControl::IsIndirectControl          162                       # Class of control type instructions committed (Count)
board.processor.cores.core.commitStats0.committedControl::IsCondControl      2147939                       # Class of control type instructions committed (Count)
board.processor.cores.core.commitStats0.committedControl::IsUncondControl        17010                       # Class of control type instructions committed (Count)
board.processor.cores.core.commitStats0.committedControl::IsCall          140                       # Class of control type instructions committed (Count)
board.processor.cores.core.commitStats0.committedControl::IsReturn          135                       # Class of control type instructions committed (Count)
board.processor.cores.core.exec_context.thread_0.numMatAluAccesses            0                       # Number of matrix alu accesses (Count)
board.processor.cores.core.exec_context.thread_0.numCallsReturns          275                       # Number of times a function call or return occured (Count)
board.processor.cores.core.exec_context.thread_0.numMatInsts            0                       # Number of matrix instructions (Count)
board.processor.cores.core.exec_context.thread_0.numIdleCycles     0.001000                       # Number of idle cycles (Cycle)
board.processor.cores.core.exec_context.thread_0.numBusyCycles 166510508.999000                       # Number of busy cycles (Cycle)
board.processor.cores.core.exec_context.thread_0.notIdleFraction     1.000000                       # Percentage of non-idle cycles (Ratio)
board.processor.cores.core.exec_context.thread_0.idleFraction     0.000000                       # Percentage of idle cycles (Ratio)
board.processor.cores.core.executeStats0.numInsts            0                       # Number of executed instructions (Count)
board.processor.cores.core.executeStats0.numNop            0                       # Number of nop insts executed (Count)
board.processor.cores.core.executeStats0.numBranches            0                       # Number of branches executed (Count)
board.processor.cores.core.executeStats0.numLoadInsts            0                       # Number of load instructions executed (Count)
board.processor.cores.core.executeStats0.numStoreInsts     31690670                       # Number of stores executed (Count)
board.processor.cores.core.executeStats0.instRate            0                       # Inst execution rate ((Count/Cycle))
board.processor.cores.core.executeStats0.numFpAluAccesses           12                       # Number of float alu accesses (Count)
board.processor.cores.core.executeStats0.numFpRegReads           12                       # Number of times the floating registers were read (Count)
board.processor.cores.core.executeStats0.numFpRegWrites            0                       # Number of times the floating registers were written (Count)
board.processor.cores.core.executeStats0.numIntAluAccesses     99215452                       # Number of integer alu accesses (Count)
board.processor.cores.core.executeStats0.numIntRegReads    116059972                       # Number of times the integer registers were read (Count)
board.processor.cores.core.executeStats0.numIntRegWrites     92789268                       # Number of times the integer registers were written (Count)
board.processor.cores.core.executeStats0.numMemRefs     31690670                       # Number of memory refs (Count)
board.processor.cores.core.executeStats0.numMiscRegReads           26                       # Number of times the Misc registers were read (Count)
board.processor.cores.core.executeStats0.numVecAluAccesses            0                       # Number of vector alu accesses (Count)
board.processor.cores.core.executeStats0.numDiscardedOps            0                       # Number of ops (including micro ops) which were discarded before commit (Count)
board.processor.cores.core.fetchStats0.numInsts     99232192                       # Number of instructions fetched (thread level) (Count)
board.processor.cores.core.fetchStats0.numOps     99232200                       # Number of ops (including micro ops) fetched (thread level) (Count)
board.processor.cores.core.fetchStats0.fetchRate     0.595952                       # Number of inst fetches per cycle ((Count/Cycle))
board.processor.cores.core.fetchStats0.numBranches      2164949                       # Number of branches fetched (Count)
board.processor.cores.core.fetchStats0.branchRate     0.013002                       # Number of branch fetches per cycle (Ratio)
board.processor.cores.core.fetchStats0.numFetchSuspends            0                       # Number of times Execute suspended instruction fetching (Count)
board.processor.cores.core.mmu.dtb.readHits            0                       # read hits (Count)
board.processor.cores.core.mmu.dtb.readMisses            0                       # read misses (Count)
board.processor.cores.core.mmu.dtb.readAccesses            0                       # read accesses (Count)
board.processor.cores.core.mmu.dtb.writeHits            0                       # write hits (Count)
board.processor.cores.core.mmu.dtb.writeMisses            0                       # write misses (Count)
board.processor.cores.core.mmu.dtb.writeAccesses            0                       # write accesses (Count)
board.processor.cores.core.mmu.dtb.hits             0                       # Total TLB (read and write) hits (Count)
board.processor.cores.core.mmu.dtb.misses            0                       # Total TLB (read and write) misses (Count)
board.processor.cores.core.mmu.dtb.accesses            0                       # Total TLB (read and write) accesses (Count)
board.processor.cores.core.mmu.dtb.walker.num_4kb_walks            0                       # Completed page walks with 4KB pages (Count)
board.processor.cores.core.mmu.dtb.walker.num_2mb_walks            0                       # Completed page walks with 2MB pages (Count)
board.processor.cores.core.mmu.dtb.walker.power_state.pwrStateResidencyTicks::UNDEFINED 166510509000                       # Cumulative time (in ticks) in various power states (Tick)
board.processor.cores.core.mmu.itb.readHits            0                       # read hits (Count)
board.processor.cores.core.mmu.itb.readMisses            0                       # read misses (Count)
board.processor.cores.core.mmu.itb.readAccesses            0                       # read accesses (Count)
board.processor.cores.core.mmu.itb.writeHits            0                       # write hits (Count)
board.processor.cores.core.mmu.itb.writeMisses            0                       # write misses (Count)
board.processor.cores.core.mmu.itb.writeAccesses            0                       # write accesses (Count)
board.processor.cores.core.mmu.itb.hits             0                       # Total TLB (read and write) hits (Count)
board.processor.cores.core.mmu.itb.misses            0                       # Total TLB (read and write) misses (Count)
board.processor.cores.core.mmu.itb.accesses            0                       # Total TLB (read and write) accesses (Count)
board.processor.cores.core.mmu.itb.walker.num_4kb_walks            0                       # Completed page walks with 4KB pages (Count)
board.processor.cores.core.mmu.itb.walker.num_2mb_walks            0                       # Completed page walks with 2MB pages (Count)
board.processor.cores.core.mmu.itb.walker.power_state.pwrStateResidencyTicks::UNDEFINED 166510509000                       # Cumulative time (in ticks) in various power states (Tick)
board.processor.cores.core.power_state.pwrStateResidencyTicks::ON 166510509000                       # Cumulative time (in ticks) in various power states (Tick)
board.processor.cores.core.thread_0.numInsts            0                       # Number of Instructions committed (Count)
board.processor.cores.core.thread_0.numOps            0                       # Number of Ops committed (Count)
board.processor.cores.core.thread_0.numMemRefs            0                       # Number of Memory References (Count)
board.processor.cores.core.workload.numSyscalls           14                       # Number of system calls (Count)
board.workload.inst.arm                             0                       # number of arm instructions executed (Count)
board.workload.inst.quiesce                         0                       # number of quiesce instructions executed (Count)

---------- End Simulation Statistics   ----------
