
---------- Begin Simulation Statistics ----------
simSeconds                                   0.010587                       # Number of seconds simulated (Second)
simTicks                                  10586976000                       # Number of ticks simulated (Tick)
finalTick                                 10586976000                       # Number of ticks from beginning of simulation (restored from checkpoints and never reset) (Tick)
simFreq                                  1000000000000                       # The number of ticks per simulated second ((Tick/Second))
hostSeconds                                      9.19                       # Real time elapsed on the host (Second)
hostTickRate                               1152108231                       # The number of ticks simulated per host second (ticks/s) ((Tick/Second))
hostMemory                                    2242388                       # Number of bytes of host memory used (Byte)
simInsts                                      5964427                       # Number of instructions simulated (Count)
simOps                                        5964466                       # Number of ops (including micro ops) simulated (Count)
hostInstRate                                   649058                       # Simulator instruction rate (inst/s) ((Count/Second))
hostOpRate                                     649062                       # Simulator op (including micro ops) rate (op/s) ((Count/Second))
board.cache_hierarchy.l1d-cache-0.demandHits::processor.cores.core.data      2543931                       # number of demand (read+write) hits (Count)
board.cache_hierarchy.l1d-cache-0.demandHits::total      2543931                       # number of demand (read+write) hits (Count)
board.cache_hierarchy.l1d-cache-0.overallHits::processor.cores.core.data      2543931                       # number of overall hits (Count)
board.cache_hierarchy.l1d-cache-0.overallHits::total      2543931                       # number of overall hits (Count)
board.cache_hierarchy.l1d-cache-0.demandMisses::processor.cores.core.data         5125                       # number of demand (read+write) misses (Count)
board.cache_hierarchy.l1d-cache-0.demandMisses::total         5125                       # number of demand (read+write) misses (Count)
board.cache_hierarchy.l1d-cache-0.overallMisses::processor.cores.core.data         5125                       # number of overall misses (Count)
board.cache_hierarchy.l1d-cache-0.overallMisses::total         5125                       # number of overall misses (Count)
board.cache_hierarchy.l1d-cache-0.demandMissLatency::processor.cores.core.data     84778000                       # number of demand (read+write) miss ticks (Tick)
board.cache_hierarchy.l1d-cache-0.demandMissLatency::total     84778000                       # number of demand (read+write) miss ticks (Tick)
board.cache_hierarchy.l1d-cache-0.overallMissLatency::processor.cores.core.data     84778000                       # number of overall miss ticks (Tick)
board.cache_hierarchy.l1d-cache-0.overallMissLatency::total     84778000                       # number of overall miss ticks (Tick)
board.cache_hierarchy.l1d-cache-0.demandAccesses::processor.cores.core.data      2549056                       # number of demand (read+write) accesses (Count)
board.cache_hierarchy.l1d-cache-0.demandAccesses::total      2549056                       # number of demand (read+write) accesses (Count)
board.cache_hierarchy.l1d-cache-0.overallAccesses::processor.cores.core.data      2549056                       # number of overall (read+write) accesses (Count)
board.cache_hierarchy.l1d-cache-0.overallAccesses::total      2549056                       # number of overall (read+write) accesses (Count)
board.cache_hierarchy.l1d-cache-0.demandMissRate::processor.cores.core.data     0.002011                       # miss rate for demand accesses (Ratio)
board.cache_hierarchy.l1d-cache-0.demandMissRate::total     0.002011                       # miss rate for demand accesses (Ratio)
board.cache_hierarchy.l1d-cache-0.overallMissRate::processor.cores.core.data     0.002011                       # miss rate for overall accesses (Ratio)
board.cache_hierarchy.l1d-cache-0.overallMissRate::total     0.002011                       # miss rate for overall accesses (Ratio)
board.cache_hierarchy.l1d-cache-0.demandAvgMissLatency::processor.cores.core.data 16542.048780                       # average overall miss latency in ticks ((Tick/Count))
board.cache_hierarchy.l1d-cache-0.demandAvgMissLatency::total 16542.048780                       # average overall miss latency in ticks ((Tick/Count))
board.cache_hierarchy.l1d-cache-0.overallAvgMissLatency::processor.cores.core.data 16542.048780                       # average overall miss latency ((Tick/Count))
board.cache_hierarchy.l1d-cache-0.overallAvgMissLatency::total 16542.048780                       # average overall miss latency ((Tick/Count))
board.cache_hierarchy.l1d-cache-0.blockedCycles::no_mshrs            0                       # number of cycles access was blocked (Cycle)
board.cache_hierarchy.l1d-cache-0.blockedCycles::no_targets            0                       # number of cycles access was blocked (Cycle)
board.cache_hierarchy.l1d-cache-0.blockedCauses::no_mshrs            0                       # number of times access was blocked (Count)
board.cache_hierarchy.l1d-cache-0.blockedCauses::no_targets            0                       # number of times access was blocked (Count)
board.cache_hierarchy.l1d-cache-0.avgBlocked::no_mshrs          nan                       # average number of cycles each access was blocked ((Cycle/Count))
board.cache_hierarchy.l1d-cache-0.avgBlocked::no_targets          nan                       # average number of cycles each access was blocked ((Cycle/Count))
board.cache_hierarchy.l1d-cache-0.writebacks::writebacks         9785                       # number of writebacks (Count)
board.cache_hierarchy.l1d-cache-0.writebacks::total         9785                       # number of writebacks (Count)
board.cache_hierarchy.l1d-cache-0.demandMshrMisses::processor.cores.core.data         5125                       # number of demand (read+write) MSHR misses (Count)
board.cache_hierarchy.l1d-cache-0.demandMshrMisses::total         5125                       # number of demand (read+write) MSHR misses (Count)
board.cache_hierarchy.l1d-cache-0.overallMshrMisses::cache_hierarchy.l1d-cache-0.prefetcher        83246                       # number of overall MSHR misses (Count)
board.cache_hierarchy.l1d-cache-0.overallMshrMisses::processor.cores.core.data         5125                       # number of overall MSHR misses (Count)
board.cache_hierarchy.l1d-cache-0.overallMshrMisses::total        88371                       # number of overall MSHR misses (Count)
board.cache_hierarchy.l1d-cache-0.demandMshrMissLatency::processor.cores.core.data     79653000                       # number of demand (read+write) MSHR miss ticks (Tick)
board.cache_hierarchy.l1d-cache-0.demandMshrMissLatency::total     79653000                       # number of demand (read+write) MSHR miss ticks (Tick)
board.cache_hierarchy.l1d-cache-0.overallMshrMissLatency::cache_hierarchy.l1d-cache-0.prefetcher   1205150070                       # number of overall MSHR miss ticks (Tick)
board.cache_hierarchy.l1d-cache-0.overallMshrMissLatency::processor.cores.core.data     79653000                       # number of overall MSHR miss ticks (Tick)
board.cache_hierarchy.l1d-cache-0.overallMshrMissLatency::total   1284803070                       # number of overall MSHR miss ticks (Tick)
board.cache_hierarchy.l1d-cache-0.demandMshrMissRate::processor.cores.core.data     0.002011                       # mshr miss ratio for demand accesses (Ratio)
board.cache_hierarchy.l1d-cache-0.demandMshrMissRate::total     0.002011                       # mshr miss ratio for demand accesses (Ratio)
board.cache_hierarchy.l1d-cache-0.overallMshrMissRate::cache_hierarchy.l1d-cache-0.prefetcher          inf                       # mshr miss ratio for overall accesses (Ratio)
board.cache_hierarchy.l1d-cache-0.overallMshrMissRate::processor.cores.core.data     0.002011                       # mshr miss ratio for overall accesses (Ratio)
board.cache_hierarchy.l1d-cache-0.overallMshrMissRate::total     0.034668                       # mshr miss ratio for overall accesses (Ratio)
board.cache_hierarchy.l1d-cache-0.demandAvgMshrMissLatency::processor.cores.core.data 15542.048780                       # average overall mshr miss latency ((Tick/Count))
board.cache_hierarchy.l1d-cache-0.demandAvgMshrMissLatency::total 15542.048780                       # average overall mshr miss latency ((Tick/Count))
board.cache_hierarchy.l1d-cache-0.overallAvgMshrMissLatency::cache_hierarchy.l1d-cache-0.prefetcher 14476.972707                       # average overall mshr miss latency ((Tick/Count))
board.cache_hierarchy.l1d-cache-0.overallAvgMshrMissLatency::processor.cores.core.data 15542.048780                       # average overall mshr miss latency ((Tick/Count))
board.cache_hierarchy.l1d-cache-0.overallAvgMshrMissLatency::total 14538.740877                       # average overall mshr miss latency ((Tick/Count))
board.cache_hierarchy.l1d-cache-0.replacements        88118                       # number of replacements (Count)
board.cache_hierarchy.l1d-cache-0.HardPFReq.mshrMisses::cache_hierarchy.l1d-cache-0.prefetcher        83246                       # number of HardPFReq MSHR misses (Count)
board.cache_hierarchy.l1d-cache-0.HardPFReq.mshrMisses::total        83246                       # number of HardPFReq MSHR misses (Count)
board.cache_hierarchy.l1d-cache-0.HardPFReq.mshrMissLatency::cache_hierarchy.l1d-cache-0.prefetcher   1205150070                       # number of HardPFReq MSHR miss ticks (Tick)
board.cache_hierarchy.l1d-cache-0.HardPFReq.mshrMissLatency::total   1205150070                       # number of HardPFReq MSHR miss ticks (Tick)
board.cache_hierarchy.l1d-cache-0.HardPFReq.mshrMissRate::cache_hierarchy.l1d-cache-0.prefetcher          inf                       # mshr miss rate for HardPFReq accesses (Ratio)
board.cache_hierarchy.l1d-cache-0.HardPFReq.mshrMissRate::total          inf                       # mshr miss rate for HardPFReq accesses (Ratio)
board.cache_hierarchy.l1d-cache-0.HardPFReq.avgMshrMissLatency::cache_hierarchy.l1d-cache-0.prefetcher 14476.972707                       # average HardPFReq mshr miss latency ((Tick/Count))
board.cache_hierarchy.l1d-cache-0.HardPFReq.avgMshrMissLatency::total 14476.972707                       # average HardPFReq mshr miss latency ((Tick/Count))
board.cache_hierarchy.l1d-cache-0.LoadLockedReq.hits::processor.cores.core.data           37                       # number of LoadLockedReq hits (Count)
board.cache_hierarchy.l1d-cache-0.LoadLockedReq.hits::total           37                       # number of LoadLockedReq hits (Count)
board.cache_hierarchy.l1d-cache-0.LoadLockedReq.misses::processor.cores.core.data            2                       # number of LoadLockedReq misses (Count)
board.cache_hierarchy.l1d-cache-0.LoadLockedReq.misses::total            2                       # number of LoadLockedReq misses (Count)
board.cache_hierarchy.l1d-cache-0.LoadLockedReq.missLatency::processor.cores.core.data        92000                       # number of LoadLockedReq miss ticks (Tick)
board.cache_hierarchy.l1d-cache-0.LoadLockedReq.missLatency::total        92000                       # number of LoadLockedReq miss ticks (Tick)
board.cache_hierarchy.l1d-cache-0.LoadLockedReq.accesses::processor.cores.core.data           39                       # number of LoadLockedReq accesses(hits+misses) (Count)
board.cache_hierarchy.l1d-cache-0.LoadLockedReq.accesses::total           39                       # number of LoadLockedReq accesses(hits+misses) (Count)
board.cache_hierarchy.l1d-cache-0.LoadLockedReq.missRate::processor.cores.core.data     0.051282                       # miss rate for LoadLockedReq accesses (Ratio)
board.cache_hierarchy.l1d-cache-0.LoadLockedReq.missRate::total     0.051282                       # miss rate for LoadLockedReq accesses (Ratio)
board.cache_hierarchy.l1d-cache-0.LoadLockedReq.avgMissLatency::processor.cores.core.data        46000                       # average LoadLockedReq miss latency ((Tick/Count))
board.cache_hierarchy.l1d-cache-0.LoadLockedReq.avgMissLatency::total        46000                       # average LoadLockedReq miss latency ((Tick/Count))
board.cache_hierarchy.l1d-cache-0.LoadLockedReq.mshrMisses::processor.cores.core.data            2                       # number of LoadLockedReq MSHR misses (Count)
board.cache_hierarchy.l1d-cache-0.LoadLockedReq.mshrMisses::total            2                       # number of LoadLockedReq MSHR misses (Count)
board.cache_hierarchy.l1d-cache-0.LoadLockedReq.mshrMissLatency::processor.cores.core.data        90000                       # number of LoadLockedReq MSHR miss ticks (Tick)
board.cache_hierarchy.l1d-cache-0.LoadLockedReq.mshrMissLatency::total        90000                       # number of LoadLockedReq MSHR miss ticks (Tick)
board.cache_hierarchy.l1d-cache-0.LoadLockedReq.mshrMissRate::processor.cores.core.data     0.051282                       # mshr miss rate for LoadLockedReq accesses (Ratio)
board.cache_hierarchy.l1d-cache-0.LoadLockedReq.mshrMissRate::total     0.051282                       # mshr miss rate for LoadLockedReq accesses (Ratio)
board.cache_hierarchy.l1d-cache-0.LoadLockedReq.avgMshrMissLatency::processor.cores.core.data        45000                       # average LoadLockedReq mshr miss latency ((Tick/Count))
board.cache_hierarchy.l1d-cache-0.LoadLockedReq.avgMshrMissLatency::total        45000                       # average LoadLockedReq mshr miss latency ((Tick/Count))
board.cache_hierarchy.l1d-cache-0.ReadReq.hits::processor.cores.core.data      1578330                       # number of ReadReq hits (Count)
board.cache_hierarchy.l1d-cache-0.ReadReq.hits::total      1578330                       # number of ReadReq hits (Count)
board.cache_hierarchy.l1d-cache-0.ReadReq.misses::processor.cores.core.data         4538                       # number of ReadReq misses (Count)
board.cache_hierarchy.l1d-cache-0.ReadReq.misses::total         4538                       # number of ReadReq misses (Count)
board.cache_hierarchy.l1d-cache-0.ReadReq.missLatency::processor.cores.core.data     71042000                       # number of ReadReq miss ticks (Tick)
board.cache_hierarchy.l1d-cache-0.ReadReq.missLatency::total     71042000                       # number of ReadReq miss ticks (Tick)
board.cache_hierarchy.l1d-cache-0.ReadReq.accesses::processor.cores.core.data      1582868                       # number of ReadReq accesses(hits+misses) (Count)
board.cache_hierarchy.l1d-cache-0.ReadReq.accesses::total      1582868                       # number of ReadReq accesses(hits+misses) (Count)
board.cache_hierarchy.l1d-cache-0.ReadReq.missRate::processor.cores.core.data     0.002867                       # miss rate for ReadReq accesses (Ratio)
board.cache_hierarchy.l1d-cache-0.ReadReq.missRate::total     0.002867                       # miss rate for ReadReq accesses (Ratio)
board.cache_hierarchy.l1d-cache-0.ReadReq.avgMissLatency::processor.cores.core.data 15654.914059                       # average ReadReq miss latency ((Tick/Count))
board.cache_hierarchy.l1d-cache-0.ReadReq.avgMissLatency::total 15654.914059                       # average ReadReq miss latency ((Tick/Count))
board.cache_hierarchy.l1d-cache-0.ReadReq.mshrMisses::processor.cores.core.data         4538                       # number of ReadReq MSHR misses (Count)
board.cache_hierarchy.l1d-cache-0.ReadReq.mshrMisses::total         4538                       # number of ReadReq MSHR misses (Count)
board.cache_hierarchy.l1d-cache-0.ReadReq.mshrMissLatency::processor.cores.core.data     66504000                       # number of ReadReq MSHR miss ticks (Tick)
board.cache_hierarchy.l1d-cache-0.ReadReq.mshrMissLatency::total     66504000                       # number of ReadReq MSHR miss ticks (Tick)
board.cache_hierarchy.l1d-cache-0.ReadReq.mshrMissRate::processor.cores.core.data     0.002867                       # mshr miss rate for ReadReq accesses (Ratio)
board.cache_hierarchy.l1d-cache-0.ReadReq.mshrMissRate::total     0.002867                       # mshr miss rate for ReadReq accesses (Ratio)
board.cache_hierarchy.l1d-cache-0.ReadReq.avgMshrMissLatency::processor.cores.core.data 14654.914059                       # average ReadReq mshr miss latency ((Tick/Count))
board.cache_hierarchy.l1d-cache-0.ReadReq.avgMshrMissLatency::total 14654.914059                       # average ReadReq mshr miss latency ((Tick/Count))
board.cache_hierarchy.l1d-cache-0.StoreCondReq.hits::processor.cores.core.data           39                       # number of StoreCondReq hits (Count)
board.cache_hierarchy.l1d-cache-0.StoreCondReq.hits::total           39                       # number of StoreCondReq hits (Count)
board.cache_hierarchy.l1d-cache-0.StoreCondReq.accesses::processor.cores.core.data           39                       # number of StoreCondReq accesses(hits+misses) (Count)
board.cache_hierarchy.l1d-cache-0.StoreCondReq.accesses::total           39                       # number of StoreCondReq accesses(hits+misses) (Count)
board.cache_hierarchy.l1d-cache-0.SwapReq.hits::processor.cores.core.data           49                       # number of SwapReq hits (Count)
board.cache_hierarchy.l1d-cache-0.SwapReq.hits::total           49                       # number of SwapReq hits (Count)
board.cache_hierarchy.l1d-cache-0.SwapReq.misses::processor.cores.core.data            1                       # number of SwapReq misses (Count)
board.cache_hierarchy.l1d-cache-0.SwapReq.misses::total            1                       # number of SwapReq misses (Count)
board.cache_hierarchy.l1d-cache-0.SwapReq.missLatency::processor.cores.core.data        64000                       # number of SwapReq miss ticks (Tick)
board.cache_hierarchy.l1d-cache-0.SwapReq.missLatency::total        64000                       # number of SwapReq miss ticks (Tick)
board.cache_hierarchy.l1d-cache-0.SwapReq.accesses::processor.cores.core.data           50                       # number of SwapReq accesses(hits+misses) (Count)
board.cache_hierarchy.l1d-cache-0.SwapReq.accesses::total           50                       # number of SwapReq accesses(hits+misses) (Count)
board.cache_hierarchy.l1d-cache-0.SwapReq.missRate::processor.cores.core.data     0.020000                       # miss rate for SwapReq accesses (Ratio)
board.cache_hierarchy.l1d-cache-0.SwapReq.missRate::total     0.020000                       # miss rate for SwapReq accesses (Ratio)
board.cache_hierarchy.l1d-cache-0.SwapReq.avgMissLatency::processor.cores.core.data        64000                       # average SwapReq miss latency ((Tick/Count))
board.cache_hierarchy.l1d-cache-0.SwapReq.avgMissLatency::total        64000                       # average SwapReq miss latency ((Tick/Count))
board.cache_hierarchy.l1d-cache-0.SwapReq.mshrMisses::processor.cores.core.data            1                       # number of SwapReq MSHR misses (Count)
board.cache_hierarchy.l1d-cache-0.SwapReq.mshrMisses::total            1                       # number of SwapReq MSHR misses (Count)
board.cache_hierarchy.l1d-cache-0.SwapReq.mshrMissLatency::processor.cores.core.data        63000                       # number of SwapReq MSHR miss ticks (Tick)
board.cache_hierarchy.l1d-cache-0.SwapReq.mshrMissLatency::total        63000                       # number of SwapReq MSHR miss ticks (Tick)
board.cache_hierarchy.l1d-cache-0.SwapReq.mshrMissRate::processor.cores.core.data     0.020000                       # mshr miss rate for SwapReq accesses (Ratio)
board.cache_hierarchy.l1d-cache-0.SwapReq.mshrMissRate::total     0.020000                       # mshr miss rate for SwapReq accesses (Ratio)
board.cache_hierarchy.l1d-cache-0.SwapReq.avgMshrMissLatency::processor.cores.core.data        63000                       # average SwapReq mshr miss latency ((Tick/Count))
board.cache_hierarchy.l1d-cache-0.SwapReq.avgMshrMissLatency::total        63000                       # average SwapReq mshr miss latency ((Tick/Count))
board.cache_hierarchy.l1d-cache-0.WriteReq.hits::processor.cores.core.data       965601                       # number of WriteReq hits (Count)
board.cache_hierarchy.l1d-cache-0.WriteReq.hits::total       965601                       # number of WriteReq hits (Count)
board.cache_hierarchy.l1d-cache-0.WriteReq.misses::processor.cores.core.data          587                       # number of WriteReq misses (Count)
board.cache_hierarchy.l1d-cache-0.WriteReq.misses::total          587                       # number of WriteReq misses (Count)
board.cache_hierarchy.l1d-cache-0.WriteReq.missLatency::processor.cores.core.data     13736000                       # number of WriteReq miss ticks (Tick)
board.cache_hierarchy.l1d-cache-0.WriteReq.missLatency::total     13736000                       # number of WriteReq miss ticks (Tick)
board.cache_hierarchy.l1d-cache-0.WriteReq.accesses::processor.cores.core.data       966188                       # number of WriteReq accesses(hits+misses) (Count)
board.cache_hierarchy.l1d-cache-0.WriteReq.accesses::total       966188                       # number of WriteReq accesses(hits+misses) (Count)
board.cache_hierarchy.l1d-cache-0.WriteReq.missRate::processor.cores.core.data     0.000608                       # miss rate for WriteReq accesses (Ratio)
board.cache_hierarchy.l1d-cache-0.WriteReq.missRate::total     0.000608                       # miss rate for WriteReq accesses (Ratio)
board.cache_hierarchy.l1d-cache-0.WriteReq.avgMissLatency::processor.cores.core.data 23400.340716                       # average WriteReq miss latency ((Tick/Count))
board.cache_hierarchy.l1d-cache-0.WriteReq.avgMissLatency::total 23400.340716                       # average WriteReq miss latency ((Tick/Count))
board.cache_hierarchy.l1d-cache-0.WriteReq.mshrMisses::processor.cores.core.data          587                       # number of WriteReq MSHR misses (Count)
board.cache_hierarchy.l1d-cache-0.WriteReq.mshrMisses::total          587                       # number of WriteReq MSHR misses (Count)
board.cache_hierarchy.l1d-cache-0.WriteReq.mshrMissLatency::processor.cores.core.data     13149000                       # number of WriteReq MSHR miss ticks (Tick)
board.cache_hierarchy.l1d-cache-0.WriteReq.mshrMissLatency::total     13149000                       # number of WriteReq MSHR miss ticks (Tick)
board.cache_hierarchy.l1d-cache-0.WriteReq.mshrMissRate::processor.cores.core.data     0.000608                       # mshr miss rate for WriteReq accesses (Ratio)
board.cache_hierarchy.l1d-cache-0.WriteReq.mshrMissRate::total     0.000608                       # mshr miss rate for WriteReq accesses (Ratio)
board.cache_hierarchy.l1d-cache-0.WriteReq.avgMshrMissLatency::processor.cores.core.data 22400.340716                       # average WriteReq mshr miss latency ((Tick/Count))
board.cache_hierarchy.l1d-cache-0.WriteReq.avgMshrMissLatency::total 22400.340716                       # average WriteReq mshr miss latency ((Tick/Count))
board.cache_hierarchy.l1d-cache-0.power_state.pwrStateResidencyTicks::UNDEFINED  10586976000                       # Cumulative time (in ticks) in various power states (Tick)
board.cache_hierarchy.l1d-cache-0.prefetcher.demandMshrMisses         5125                       # demands not covered by prefetchs (Count)
board.cache_hierarchy.l1d-cache-0.prefetcher.pfIssued       329887                       # number of hwpf issued (Count)
board.cache_hierarchy.l1d-cache-0.prefetcher.pfUnused         1227                       # number of HardPF blocks evicted w/o reference (Count)
board.cache_hierarchy.l1d-cache-0.prefetcher.pfUseful        82015                       # number of useful prefetch (Count)
board.cache_hierarchy.l1d-cache-0.prefetcher.pfUsefulButMiss            0                       # number of hit on prefetch but cache block is not in an usable state (Count)
board.cache_hierarchy.l1d-cache-0.prefetcher.accuracy     0.248615                       # accuracy of the prefetcher (Count)
board.cache_hierarchy.l1d-cache-0.prefetcher.coverage     0.941187                       # coverage brought by this prefetcher (Count)
board.cache_hierarchy.l1d-cache-0.prefetcher.pfHitInCache       246641                       # number of prefetches hitting in cache (Count)
board.cache_hierarchy.l1d-cache-0.prefetcher.pfHitInMSHR            0                       # number of prefetches hitting in a MSHR (Count)
board.cache_hierarchy.l1d-cache-0.prefetcher.pfHitInWB            0                       # number of prefetches hit in the Write Buffer (Count)
board.cache_hierarchy.l1d-cache-0.prefetcher.pfLate       246641                       # number of late prefetches (hitting in cache, MSHR or WB) (Count)
board.cache_hierarchy.l1d-cache-0.prefetcher.pfIdentified       329887                       # number of prefetch candidates identified (Count)
board.cache_hierarchy.l1d-cache-0.prefetcher.pfBufferHit            0                       # number of redundant prefetches already in prefetch queue (Count)
board.cache_hierarchy.l1d-cache-0.prefetcher.pfInCache            0                       # number of redundant prefetches already in cache/mshr dropped (Count)
board.cache_hierarchy.l1d-cache-0.prefetcher.pfRemovedDemand            0                       # number of prefetches dropped due to a demand for the same address (Count)
board.cache_hierarchy.l1d-cache-0.prefetcher.pfRemovedFull            0                       # number of prefetches dropped due to prefetch queue size (Count)
board.cache_hierarchy.l1d-cache-0.prefetcher.pfSpanPage        12001                       # number of prefetches that crossed the page (Count)
board.cache_hierarchy.l1d-cache-0.prefetcher.pfUsefulSpanPage        12001                       # number of prefetches that is useful and crossed the page (Count)
board.cache_hierarchy.l1d-cache-0.prefetcher.power_state.pwrStateResidencyTicks::UNDEFINED  10586976000                       # Cumulative time (in ticks) in various power states (Tick)
board.cache_hierarchy.l1d-cache-0.tags.tagsInUse   255.488495                       # Average ticks per tags in use ((Tick/Count))
board.cache_hierarchy.l1d-cache-0.tags.totalRefs      2632430                       # Total number of references to valid blocks. (Count)
board.cache_hierarchy.l1d-cache-0.tags.sampledRefs        88374                       # Sample count of references to valid blocks. (Count)
board.cache_hierarchy.l1d-cache-0.tags.avgRefs    29.787381                       # Average number of references to valid blocks. ((Count/Count))
board.cache_hierarchy.l1d-cache-0.tags.warmupTick       233000                       # The tick when the warmup percentage was hit. (Tick)
board.cache_hierarchy.l1d-cache-0.tags.occupancies::cache_hierarchy.l1d-cache-0.prefetcher   237.001122                       # Average occupied blocks per tick, per requestor ((Count/Tick))
board.cache_hierarchy.l1d-cache-0.tags.occupancies::processor.cores.core.data    18.487373                       # Average occupied blocks per tick, per requestor ((Count/Tick))
board.cache_hierarchy.l1d-cache-0.tags.avgOccs::cache_hierarchy.l1d-cache-0.prefetcher     0.925786                       # Average percentage of cache occupancy ((Ratio/Tick))
board.cache_hierarchy.l1d-cache-0.tags.avgOccs::processor.cores.core.data     0.072216                       # Average percentage of cache occupancy ((Ratio/Tick))
board.cache_hierarchy.l1d-cache-0.tags.avgOccs::total     0.998002                       # Average percentage of cache occupancy ((Ratio/Tick))
board.cache_hierarchy.l1d-cache-0.tags.occupanciesTaskId::1022          169                       # Occupied blocks per task id (Count)
board.cache_hierarchy.l1d-cache-0.tags.occupanciesTaskId::1024           87                       # Occupied blocks per task id (Count)
board.cache_hierarchy.l1d-cache-0.tags.ageTaskId_1022::1          166                       # Occupied blocks per task id, per block age (Count)
board.cache_hierarchy.l1d-cache-0.tags.ageTaskId_1022::4            3                       # Occupied blocks per task id, per block age (Count)
board.cache_hierarchy.l1d-cache-0.tags.ageTaskId_1024::0           43                       # Occupied blocks per task id, per block age (Count)
board.cache_hierarchy.l1d-cache-0.tags.ageTaskId_1024::1           41                       # Occupied blocks per task id, per block age (Count)
board.cache_hierarchy.l1d-cache-0.tags.ageTaskId_1024::4            3                       # Occupied blocks per task id, per block age (Count)
board.cache_hierarchy.l1d-cache-0.tags.ratioOccsTaskId::1022     0.660156                       # Ratio of occupied blocks and all blocks, per task id (Ratio)
board.cache_hierarchy.l1d-cache-0.tags.ratioOccsTaskId::1024     0.339844                       # Ratio of occupied blocks and all blocks, per task id (Ratio)
board.cache_hierarchy.l1d-cache-0.tags.tagAccesses     20481846                       # Number of tag accesses (Count)
board.cache_hierarchy.l1d-cache-0.tags.dataAccesses     20481846                       # Number of data accesses (Count)
board.cache_hierarchy.l1d-cache-0.tags.power_state.pwrStateResidencyTicks::UNDEFINED  10586976000                       # Cumulative time (in ticks) in various power states (Tick)
board.cache_hierarchy.l1i-cache-0.demandHits::processor.cores.core.inst      7933302                       # number of demand (read+write) hits (Count)
board.cache_hierarchy.l1i-cache-0.demandHits::total      7933302                       # number of demand (read+write) hits (Count)
board.cache_hierarchy.l1i-cache-0.overallHits::processor.cores.core.inst      7933302                       # number of overall hits (Count)
board.cache_hierarchy.l1i-cache-0.overallHits::total      7933302                       # number of overall hits (Count)
board.cache_hierarchy.l1i-cache-0.demandMisses::processor.cores.core.inst          345                       # number of demand (read+write) misses (Count)
board.cache_hierarchy.l1i-cache-0.demandMisses::total          345                       # number of demand (read+write) misses (Count)
board.cache_hierarchy.l1i-cache-0.overallMisses::processor.cores.core.inst          345                       # number of overall misses (Count)
board.cache_hierarchy.l1i-cache-0.overallMisses::total          345                       # number of overall misses (Count)
board.cache_hierarchy.l1i-cache-0.demandMissLatency::processor.cores.core.inst     24272000                       # number of demand (read+write) miss ticks (Tick)
board.cache_hierarchy.l1i-cache-0.demandMissLatency::total     24272000                       # number of demand (read+write) miss ticks (Tick)
board.cache_hierarchy.l1i-cache-0.overallMissLatency::processor.cores.core.inst     24272000                       # number of overall miss ticks (Tick)
board.cache_hierarchy.l1i-cache-0.overallMissLatency::total     24272000                       # number of overall miss ticks (Tick)
board.cache_hierarchy.l1i-cache-0.demandAccesses::processor.cores.core.inst      7933647                       # number of demand (read+write) accesses (Count)
board.cache_hierarchy.l1i-cache-0.demandAccesses::total      7933647                       # number of demand (read+write) accesses (Count)
board.cache_hierarchy.l1i-cache-0.overallAccesses::processor.cores.core.inst      7933647                       # number of overall (read+write) accesses (Count)
board.cache_hierarchy.l1i-cache-0.overallAccesses::total      7933647                       # number of overall (read+write) accesses (Count)
board.cache_hierarchy.l1i-cache-0.demandMissRate::processor.cores.core.inst     0.000043                       # miss rate for demand accesses (Ratio)
board.cache_hierarchy.l1i-cache-0.demandMissRate::total     0.000043                       # miss rate for demand accesses (Ratio)
board.cache_hierarchy.l1i-cache-0.overallMissRate::processor.cores.core.inst     0.000043                       # miss rate for overall accesses (Ratio)
board.cache_hierarchy.l1i-cache-0.overallMissRate::total     0.000043                       # miss rate for overall accesses (Ratio)
board.cache_hierarchy.l1i-cache-0.demandAvgMissLatency::processor.cores.core.inst 70353.623188                       # average overall miss latency in ticks ((Tick/Count))
board.cache_hierarchy.l1i-cache-0.demandAvgMissLatency::total 70353.623188                       # average overall miss latency in ticks ((Tick/Count))
board.cache_hierarchy.l1i-cache-0.overallAvgMissLatency::processor.cores.core.inst 70353.623188                       # average overall miss latency ((Tick/Count))
board.cache_hierarchy.l1i-cache-0.overallAvgMissLatency::total 70353.623188                       # average overall miss latency ((Tick/Count))
board.cache_hierarchy.l1i-cache-0.blockedCycles::no_mshrs            0                       # number of cycles access was blocked (Cycle)
board.cache_hierarchy.l1i-cache-0.blockedCycles::no_targets            0                       # number of cycles access was blocked (Cycle)
board.cache_hierarchy.l1i-cache-0.blockedCauses::no_mshrs            0                       # number of times access was blocked (Count)
board.cache_hierarchy.l1i-cache-0.blockedCauses::no_targets            0                       # number of times access was blocked (Count)
board.cache_hierarchy.l1i-cache-0.avgBlocked::no_mshrs          nan                       # average number of cycles each access was blocked ((Cycle/Count))
board.cache_hierarchy.l1i-cache-0.avgBlocked::no_targets          nan                       # average number of cycles each access was blocked ((Cycle/Count))
board.cache_hierarchy.l1i-cache-0.writebacks::writebacks           90                       # number of writebacks (Count)
board.cache_hierarchy.l1i-cache-0.writebacks::total           90                       # number of writebacks (Count)
board.cache_hierarchy.l1i-cache-0.demandMshrMisses::processor.cores.core.inst          345                       # number of demand (read+write) MSHR misses (Count)
board.cache_hierarchy.l1i-cache-0.demandMshrMisses::total          345                       # number of demand (read+write) MSHR misses (Count)
board.cache_hierarchy.l1i-cache-0.overallMshrMisses::processor.cores.core.inst          345                       # number of overall MSHR misses (Count)
board.cache_hierarchy.l1i-cache-0.overallMshrMisses::total          345                       # number of overall MSHR misses (Count)
board.cache_hierarchy.l1i-cache-0.demandMshrMissLatency::processor.cores.core.inst     23927000                       # number of demand (read+write) MSHR miss ticks (Tick)
board.cache_hierarchy.l1i-cache-0.demandMshrMissLatency::total     23927000                       # number of demand (read+write) MSHR miss ticks (Tick)
board.cache_hierarchy.l1i-cache-0.overallMshrMissLatency::processor.cores.core.inst     23927000                       # number of overall MSHR miss ticks (Tick)
board.cache_hierarchy.l1i-cache-0.overallMshrMissLatency::total     23927000                       # number of overall MSHR miss ticks (Tick)
board.cache_hierarchy.l1i-cache-0.demandMshrMissRate::processor.cores.core.inst     0.000043                       # mshr miss ratio for demand accesses (Ratio)
board.cache_hierarchy.l1i-cache-0.demandMshrMissRate::total     0.000043                       # mshr miss ratio for demand accesses (Ratio)
board.cache_hierarchy.l1i-cache-0.overallMshrMissRate::processor.cores.core.inst     0.000043                       # mshr miss ratio for overall accesses (Ratio)
board.cache_hierarchy.l1i-cache-0.overallMshrMissRate::total     0.000043                       # mshr miss ratio for overall accesses (Ratio)
board.cache_hierarchy.l1i-cache-0.demandAvgMshrMissLatency::processor.cores.core.inst 69353.623188                       # average overall mshr miss latency ((Tick/Count))
board.cache_hierarchy.l1i-cache-0.demandAvgMshrMissLatency::total 69353.623188                       # average overall mshr miss latency ((Tick/Count))
board.cache_hierarchy.l1i-cache-0.overallAvgMshrMissLatency::processor.cores.core.inst 69353.623188                       # average overall mshr miss latency ((Tick/Count))
board.cache_hierarchy.l1i-cache-0.overallAvgMshrMissLatency::total 69353.623188                       # average overall mshr miss latency ((Tick/Count))
board.cache_hierarchy.l1i-cache-0.replacements           90                       # number of replacements (Count)
board.cache_hierarchy.l1i-cache-0.ReadReq.hits::processor.cores.core.inst      7933302                       # number of ReadReq hits (Count)
board.cache_hierarchy.l1i-cache-0.ReadReq.hits::total      7933302                       # number of ReadReq hits (Count)
board.cache_hierarchy.l1i-cache-0.ReadReq.misses::processor.cores.core.inst          345                       # number of ReadReq misses (Count)
board.cache_hierarchy.l1i-cache-0.ReadReq.misses::total          345                       # number of ReadReq misses (Count)
board.cache_hierarchy.l1i-cache-0.ReadReq.missLatency::processor.cores.core.inst     24272000                       # number of ReadReq miss ticks (Tick)
board.cache_hierarchy.l1i-cache-0.ReadReq.missLatency::total     24272000                       # number of ReadReq miss ticks (Tick)
board.cache_hierarchy.l1i-cache-0.ReadReq.accesses::processor.cores.core.inst      7933647                       # number of ReadReq accesses(hits+misses) (Count)
board.cache_hierarchy.l1i-cache-0.ReadReq.accesses::total      7933647                       # number of ReadReq accesses(hits+misses) (Count)
board.cache_hierarchy.l1i-cache-0.ReadReq.missRate::processor.cores.core.inst     0.000043                       # miss rate for ReadReq accesses (Ratio)
board.cache_hierarchy.l1i-cache-0.ReadReq.missRate::total     0.000043                       # miss rate for ReadReq accesses (Ratio)
board.cache_hierarchy.l1i-cache-0.ReadReq.avgMissLatency::processor.cores.core.inst 70353.623188                       # average ReadReq miss latency ((Tick/Count))
board.cache_hierarchy.l1i-cache-0.ReadReq.avgMissLatency::total 70353.623188                       # average ReadReq miss latency ((Tick/Count))
board.cache_hierarchy.l1i-cache-0.ReadReq.mshrMisses::processor.cores.core.inst          345                       # number of ReadReq MSHR misses (Count)
board.cache_hierarchy.l1i-cache-0.ReadReq.mshrMisses::total          345                       # number of ReadReq MSHR misses (Count)
board.cache_hierarchy.l1i-cache-0.ReadReq.mshrMissLatency::processor.cores.core.inst     23927000                       # number of ReadReq MSHR miss ticks (Tick)
board.cache_hierarchy.l1i-cache-0.ReadReq.mshrMissLatency::total     23927000                       # number of ReadReq MSHR miss ticks (Tick)
board.cache_hierarchy.l1i-cache-0.ReadReq.mshrMissRate::processor.cores.core.inst     0.000043                       # mshr miss rate for ReadReq accesses (Ratio)
board.cache_hierarchy.l1i-cache-0.ReadReq.mshrMissRate::total     0.000043                       # mshr miss rate for ReadReq accesses (Ratio)
board.cache_hierarchy.l1i-cache-0.ReadReq.avgMshrMissLatency::processor.cores.core.inst 69353.623188                       # average ReadReq mshr miss latency ((Tick/Count))
board.cache_hierarchy.l1i-cache-0.ReadReq.avgMshrMissLatency::total 69353.623188                       # average ReadReq mshr miss latency ((Tick/Count))
board.cache_hierarchy.l1i-cache-0.power_state.pwrStateResidencyTicks::UNDEFINED  10586976000                       # Cumulative time (in ticks) in various power states (Tick)
board.cache_hierarchy.l1i-cache-0.prefetcher.demandMshrMisses          345                       # demands not covered by prefetchs (Count)
board.cache_hierarchy.l1i-cache-0.prefetcher.pfIssued            0                       # number of hwpf issued (Count)
board.cache_hierarchy.l1i-cache-0.prefetcher.pfUseful            0                       # number of useful prefetch (Count)
board.cache_hierarchy.l1i-cache-0.prefetcher.pfUsefulButMiss            0                       # number of hit on prefetch but cache block is not in an usable state (Count)
board.cache_hierarchy.l1i-cache-0.prefetcher.accuracy          nan                       # accuracy of the prefetcher (Count)
board.cache_hierarchy.l1i-cache-0.prefetcher.coverage            0                       # coverage brought by this prefetcher (Count)
board.cache_hierarchy.l1i-cache-0.prefetcher.pfHitInCache            0                       # number of prefetches hitting in cache (Count)
board.cache_hierarchy.l1i-cache-0.prefetcher.pfHitInMSHR            0                       # number of prefetches hitting in a MSHR (Count)
board.cache_hierarchy.l1i-cache-0.prefetcher.pfHitInWB            0                       # number of prefetches hit in the Write Buffer (Count)
board.cache_hierarchy.l1i-cache-0.prefetcher.pfLate            0                       # number of late prefetches (hitting in cache, MSHR or WB) (Count)
board.cache_hierarchy.l1i-cache-0.prefetcher.pfIdentified            0                       # number of prefetch candidates identified (Count)
board.cache_hierarchy.l1i-cache-0.prefetcher.pfBufferHit            0                       # number of redundant prefetches already in prefetch queue (Count)
board.cache_hierarchy.l1i-cache-0.prefetcher.pfInCache            0                       # number of redundant prefetches already in cache/mshr dropped (Count)
board.cache_hierarchy.l1i-cache-0.prefetcher.pfRemovedDemand            0                       # number of prefetches dropped due to a demand for the same address (Count)
board.cache_hierarchy.l1i-cache-0.prefetcher.pfRemovedFull            0                       # number of prefetches dropped due to prefetch queue size (Count)
board.cache_hierarchy.l1i-cache-0.prefetcher.pfSpanPage            0                       # number of prefetches that crossed the page (Count)
board.cache_hierarchy.l1i-cache-0.prefetcher.pfUsefulSpanPage            0                       # number of prefetches that is useful and crossed the page (Count)
board.cache_hierarchy.l1i-cache-0.prefetcher.power_state.pwrStateResidencyTicks::UNDEFINED  10586976000                       # Cumulative time (in ticks) in various power states (Tick)
board.cache_hierarchy.l1i-cache-0.tags.tagsInUse   246.151503                       # Average ticks per tags in use ((Tick/Count))
board.cache_hierarchy.l1i-cache-0.tags.totalRefs      7933647                       # Total number of references to valid blocks. (Count)
board.cache_hierarchy.l1i-cache-0.tags.sampledRefs          345                       # Sample count of references to valid blocks. (Count)
board.cache_hierarchy.l1i-cache-0.tags.avgRefs 22996.078261                       # Average number of references to valid blocks. ((Count/Count))
board.cache_hierarchy.l1i-cache-0.tags.warmupTick        79000                       # The tick when the warmup percentage was hit. (Tick)
board.cache_hierarchy.l1i-cache-0.tags.occupancies::processor.cores.core.inst   246.151503                       # Average occupied blocks per tick, per requestor ((Count/Tick))
board.cache_hierarchy.l1i-cache-0.tags.avgOccs::processor.cores.core.inst     0.961529                       # Average percentage of cache occupancy ((Ratio/Tick))
board.cache_hierarchy.l1i-cache-0.tags.avgOccs::total     0.961529                       # Average percentage of cache occupancy ((Ratio/Tick))
board.cache_hierarchy.l1i-cache-0.tags.occupanciesTaskId::1024          255                       # Occupied blocks per task id (Count)
board.cache_hierarchy.l1i-cache-0.tags.ageTaskId_1024::0           40                       # Occupied blocks per task id, per block age (Count)
board.cache_hierarchy.l1i-cache-0.tags.ageTaskId_1024::3           15                       # Occupied blocks per task id, per block age (Count)
board.cache_hierarchy.l1i-cache-0.tags.ageTaskId_1024::4          200                       # Occupied blocks per task id, per block age (Count)
board.cache_hierarchy.l1i-cache-0.tags.ratioOccsTaskId::1024     0.996094                       # Ratio of occupied blocks and all blocks, per task id (Ratio)
board.cache_hierarchy.l1i-cache-0.tags.tagAccesses     63469521                       # Number of tag accesses (Count)
board.cache_hierarchy.l1i-cache-0.tags.dataAccesses     63469521                       # Number of data accesses (Count)
board.cache_hierarchy.l1i-cache-0.tags.power_state.pwrStateResidencyTicks::UNDEFINED  10586976000                       # Cumulative time (in ticks) in various power states (Tick)
board.cache_hierarchy.l2-cache-0.demandHits::cache_hierarchy.l1d-cache-0.prefetcher        83200                       # number of demand (read+write) hits (Count)
board.cache_hierarchy.l2-cache-0.demandHits::processor.cores.core.inst            1                       # number of demand (read+write) hits (Count)
board.cache_hierarchy.l2-cache-0.demandHits::processor.cores.core.data         4914                       # number of demand (read+write) hits (Count)
board.cache_hierarchy.l2-cache-0.demandHits::total        88115                       # number of demand (read+write) hits (Count)
board.cache_hierarchy.l2-cache-0.overallHits::cache_hierarchy.l1d-cache-0.prefetcher        83200                       # number of overall hits (Count)
board.cache_hierarchy.l2-cache-0.overallHits::processor.cores.core.inst            1                       # number of overall hits (Count)
board.cache_hierarchy.l2-cache-0.overallHits::processor.cores.core.data         4914                       # number of overall hits (Count)
board.cache_hierarchy.l2-cache-0.overallHits::total        88115                       # number of overall hits (Count)
board.cache_hierarchy.l2-cache-0.demandMisses::cache_hierarchy.l1d-cache-0.prefetcher           46                       # number of demand (read+write) misses (Count)
board.cache_hierarchy.l2-cache-0.demandMisses::processor.cores.core.inst          344                       # number of demand (read+write) misses (Count)
board.cache_hierarchy.l2-cache-0.demandMisses::processor.cores.core.data          214                       # number of demand (read+write) misses (Count)
board.cache_hierarchy.l2-cache-0.demandMisses::total          604                       # number of demand (read+write) misses (Count)
board.cache_hierarchy.l2-cache-0.overallMisses::cache_hierarchy.l1d-cache-0.prefetcher           46                       # number of overall misses (Count)
board.cache_hierarchy.l2-cache-0.overallMisses::processor.cores.core.inst          344                       # number of overall misses (Count)
board.cache_hierarchy.l2-cache-0.overallMisses::processor.cores.core.data          214                       # number of overall misses (Count)
board.cache_hierarchy.l2-cache-0.overallMisses::total          604                       # number of overall misses (Count)
board.cache_hierarchy.l2-cache-0.demandMissLatency::cache_hierarchy.l1d-cache-0.prefetcher      3796000                       # number of demand (read+write) miss ticks (Tick)
board.cache_hierarchy.l2-cache-0.demandMissLatency::processor.cores.core.inst     23214000                       # number of demand (read+write) miss ticks (Tick)
board.cache_hierarchy.l2-cache-0.demandMissLatency::processor.cores.core.data     15491000                       # number of demand (read+write) miss ticks (Tick)
board.cache_hierarchy.l2-cache-0.demandMissLatency::total     42501000                       # number of demand (read+write) miss ticks (Tick)
board.cache_hierarchy.l2-cache-0.overallMissLatency::cache_hierarchy.l1d-cache-0.prefetcher      3796000                       # number of overall miss ticks (Tick)
board.cache_hierarchy.l2-cache-0.overallMissLatency::processor.cores.core.inst     23214000                       # number of overall miss ticks (Tick)
board.cache_hierarchy.l2-cache-0.overallMissLatency::processor.cores.core.data     15491000                       # number of overall miss ticks (Tick)
board.cache_hierarchy.l2-cache-0.overallMissLatency::total     42501000                       # number of overall miss ticks (Tick)
board.cache_hierarchy.l2-cache-0.demandAccesses::cache_hierarchy.l1d-cache-0.prefetcher        83246                       # number of demand (read+write) accesses (Count)
board.cache_hierarchy.l2-cache-0.demandAccesses::processor.cores.core.inst          345                       # number of demand (read+write) accesses (Count)
board.cache_hierarchy.l2-cache-0.demandAccesses::processor.cores.core.data         5128                       # number of demand (read+write) accesses (Count)
board.cache_hierarchy.l2-cache-0.demandAccesses::total        88719                       # number of demand (read+write) accesses (Count)
board.cache_hierarchy.l2-cache-0.overallAccesses::cache_hierarchy.l1d-cache-0.prefetcher        83246                       # number of overall (read+write) accesses (Count)
board.cache_hierarchy.l2-cache-0.overallAccesses::processor.cores.core.inst          345                       # number of overall (read+write) accesses (Count)
board.cache_hierarchy.l2-cache-0.overallAccesses::processor.cores.core.data         5128                       # number of overall (read+write) accesses (Count)
board.cache_hierarchy.l2-cache-0.overallAccesses::total        88719                       # number of overall (read+write) accesses (Count)
board.cache_hierarchy.l2-cache-0.demandMissRate::cache_hierarchy.l1d-cache-0.prefetcher     0.000553                       # miss rate for demand accesses (Ratio)
board.cache_hierarchy.l2-cache-0.demandMissRate::processor.cores.core.inst     0.997101                       # miss rate for demand accesses (Ratio)
board.cache_hierarchy.l2-cache-0.demandMissRate::processor.cores.core.data     0.041732                       # miss rate for demand accesses (Ratio)
board.cache_hierarchy.l2-cache-0.demandMissRate::total     0.006808                       # miss rate for demand accesses (Ratio)
board.cache_hierarchy.l2-cache-0.overallMissRate::cache_hierarchy.l1d-cache-0.prefetcher     0.000553                       # miss rate for overall accesses (Ratio)
board.cache_hierarchy.l2-cache-0.overallMissRate::processor.cores.core.inst     0.997101                       # miss rate for overall accesses (Ratio)
board.cache_hierarchy.l2-cache-0.overallMissRate::processor.cores.core.data     0.041732                       # miss rate for overall accesses (Ratio)
board.cache_hierarchy.l2-cache-0.overallMissRate::total     0.006808                       # miss rate for overall accesses (Ratio)
board.cache_hierarchy.l2-cache-0.demandAvgMissLatency::cache_hierarchy.l1d-cache-0.prefetcher 82521.739130                       # average overall miss latency in ticks ((Tick/Count))
board.cache_hierarchy.l2-cache-0.demandAvgMissLatency::processor.cores.core.inst 67482.558140                       # average overall miss latency in ticks ((Tick/Count))
board.cache_hierarchy.l2-cache-0.demandAvgMissLatency::processor.cores.core.data 72387.850467                       # average overall miss latency in ticks ((Tick/Count))
board.cache_hierarchy.l2-cache-0.demandAvgMissLatency::total 70365.894040                       # average overall miss latency in ticks ((Tick/Count))
board.cache_hierarchy.l2-cache-0.overallAvgMissLatency::cache_hierarchy.l1d-cache-0.prefetcher 82521.739130                       # average overall miss latency ((Tick/Count))
board.cache_hierarchy.l2-cache-0.overallAvgMissLatency::processor.cores.core.inst 67482.558140                       # average overall miss latency ((Tick/Count))
board.cache_hierarchy.l2-cache-0.overallAvgMissLatency::processor.cores.core.data 72387.850467                       # average overall miss latency ((Tick/Count))
board.cache_hierarchy.l2-cache-0.overallAvgMissLatency::total 70365.894040                       # average overall miss latency ((Tick/Count))
board.cache_hierarchy.l2-cache-0.blockedCycles::no_mshrs            0                       # number of cycles access was blocked (Cycle)
board.cache_hierarchy.l2-cache-0.blockedCycles::no_targets            0                       # number of cycles access was blocked (Cycle)
board.cache_hierarchy.l2-cache-0.blockedCauses::no_mshrs            0                       # number of times access was blocked (Count)
board.cache_hierarchy.l2-cache-0.blockedCauses::no_targets            0                       # number of times access was blocked (Count)
board.cache_hierarchy.l2-cache-0.avgBlocked::no_mshrs          nan                       # average number of cycles each access was blocked ((Cycle/Count))
board.cache_hierarchy.l2-cache-0.avgBlocked::no_targets          nan                       # average number of cycles each access was blocked ((Cycle/Count))
board.cache_hierarchy.l2-cache-0.demandMshrHits::cache_hierarchy.l1d-cache-0.prefetcher           31                       # number of demand (read+write) MSHR hits (Count)
board.cache_hierarchy.l2-cache-0.demandMshrHits::total           31                       # number of demand (read+write) MSHR hits (Count)
board.cache_hierarchy.l2-cache-0.overallMshrHits::cache_hierarchy.l1d-cache-0.prefetcher           31                       # number of overall MSHR hits (Count)
board.cache_hierarchy.l2-cache-0.overallMshrHits::total           31                       # number of overall MSHR hits (Count)
board.cache_hierarchy.l2-cache-0.demandMshrMisses::cache_hierarchy.l1d-cache-0.prefetcher           15                       # number of demand (read+write) MSHR misses (Count)
board.cache_hierarchy.l2-cache-0.demandMshrMisses::processor.cores.core.inst          344                       # number of demand (read+write) MSHR misses (Count)
board.cache_hierarchy.l2-cache-0.demandMshrMisses::processor.cores.core.data          214                       # number of demand (read+write) MSHR misses (Count)
board.cache_hierarchy.l2-cache-0.demandMshrMisses::total          573                       # number of demand (read+write) MSHR misses (Count)
board.cache_hierarchy.l2-cache-0.overallMshrMisses::cache_hierarchy.l1d-cache-0.prefetcher           15                       # number of overall MSHR misses (Count)
board.cache_hierarchy.l2-cache-0.overallMshrMisses::cache_hierarchy.l2-cache-0.prefetcher          352                       # number of overall MSHR misses (Count)
board.cache_hierarchy.l2-cache-0.overallMshrMisses::processor.cores.core.inst          344                       # number of overall MSHR misses (Count)
board.cache_hierarchy.l2-cache-0.overallMshrMisses::processor.cores.core.data          214                       # number of overall MSHR misses (Count)
board.cache_hierarchy.l2-cache-0.overallMshrMisses::total          925                       # number of overall MSHR misses (Count)
board.cache_hierarchy.l2-cache-0.demandMshrMissLatency::cache_hierarchy.l1d-cache-0.prefetcher      1680000                       # number of demand (read+write) MSHR miss ticks (Tick)
board.cache_hierarchy.l2-cache-0.demandMshrMissLatency::processor.cores.core.inst     22870000                       # number of demand (read+write) MSHR miss ticks (Tick)
board.cache_hierarchy.l2-cache-0.demandMshrMissLatency::processor.cores.core.data     15277000                       # number of demand (read+write) MSHR miss ticks (Tick)
board.cache_hierarchy.l2-cache-0.demandMshrMissLatency::total     39827000                       # number of demand (read+write) MSHR miss ticks (Tick)
board.cache_hierarchy.l2-cache-0.overallMshrMissLatency::cache_hierarchy.l1d-cache-0.prefetcher      1680000                       # number of overall MSHR miss ticks (Tick)
board.cache_hierarchy.l2-cache-0.overallMshrMissLatency::cache_hierarchy.l2-cache-0.prefetcher     21137311                       # number of overall MSHR miss ticks (Tick)
board.cache_hierarchy.l2-cache-0.overallMshrMissLatency::processor.cores.core.inst     22870000                       # number of overall MSHR miss ticks (Tick)
board.cache_hierarchy.l2-cache-0.overallMshrMissLatency::processor.cores.core.data     15277000                       # number of overall MSHR miss ticks (Tick)
board.cache_hierarchy.l2-cache-0.overallMshrMissLatency::total     60964311                       # number of overall MSHR miss ticks (Tick)
board.cache_hierarchy.l2-cache-0.demandMshrMissRate::cache_hierarchy.l1d-cache-0.prefetcher     0.000180                       # mshr miss ratio for demand accesses (Ratio)
board.cache_hierarchy.l2-cache-0.demandMshrMissRate::processor.cores.core.inst     0.997101                       # mshr miss ratio for demand accesses (Ratio)
board.cache_hierarchy.l2-cache-0.demandMshrMissRate::processor.cores.core.data     0.041732                       # mshr miss ratio for demand accesses (Ratio)
board.cache_hierarchy.l2-cache-0.demandMshrMissRate::total     0.006459                       # mshr miss ratio for demand accesses (Ratio)
board.cache_hierarchy.l2-cache-0.overallMshrMissRate::cache_hierarchy.l1d-cache-0.prefetcher     0.000180                       # mshr miss ratio for overall accesses (Ratio)
board.cache_hierarchy.l2-cache-0.overallMshrMissRate::cache_hierarchy.l2-cache-0.prefetcher          inf                       # mshr miss ratio for overall accesses (Ratio)
board.cache_hierarchy.l2-cache-0.overallMshrMissRate::processor.cores.core.inst     0.997101                       # mshr miss ratio for overall accesses (Ratio)
board.cache_hierarchy.l2-cache-0.overallMshrMissRate::processor.cores.core.data     0.041732                       # mshr miss ratio for overall accesses (Ratio)
board.cache_hierarchy.l2-cache-0.overallMshrMissRate::total     0.010426                       # mshr miss ratio for overall accesses (Ratio)
board.cache_hierarchy.l2-cache-0.demandAvgMshrMissLatency::cache_hierarchy.l1d-cache-0.prefetcher       112000                       # average overall mshr miss latency ((Tick/Count))
board.cache_hierarchy.l2-cache-0.demandAvgMshrMissLatency::processor.cores.core.inst 66482.558140                       # average overall mshr miss latency ((Tick/Count))
board.cache_hierarchy.l2-cache-0.demandAvgMshrMissLatency::processor.cores.core.data 71387.850467                       # average overall mshr miss latency ((Tick/Count))
board.cache_hierarchy.l2-cache-0.demandAvgMshrMissLatency::total 69506.108202                       # average overall mshr miss latency ((Tick/Count))
board.cache_hierarchy.l2-cache-0.overallAvgMshrMissLatency::cache_hierarchy.l1d-cache-0.prefetcher       112000                       # average overall mshr miss latency ((Tick/Count))
board.cache_hierarchy.l2-cache-0.overallAvgMshrMissLatency::cache_hierarchy.l2-cache-0.prefetcher 60049.178977                       # average overall mshr miss latency ((Tick/Count))
board.cache_hierarchy.l2-cache-0.overallAvgMshrMissLatency::processor.cores.core.inst 66482.558140                       # average overall mshr miss latency ((Tick/Count))
board.cache_hierarchy.l2-cache-0.overallAvgMshrMissLatency::processor.cores.core.data 71387.850467                       # average overall mshr miss latency ((Tick/Count))
board.cache_hierarchy.l2-cache-0.overallAvgMshrMissLatency::total 65907.363243                       # average overall mshr miss latency ((Tick/Count))
board.cache_hierarchy.l2-cache-0.replacements            0                       # number of replacements (Count)
board.cache_hierarchy.l2-cache-0.HardPFReq.mshrMisses::cache_hierarchy.l2-cache-0.prefetcher          352                       # number of HardPFReq MSHR misses (Count)
board.cache_hierarchy.l2-cache-0.HardPFReq.mshrMisses::total          352                       # number of HardPFReq MSHR misses (Count)
board.cache_hierarchy.l2-cache-0.HardPFReq.mshrMissLatency::cache_hierarchy.l2-cache-0.prefetcher     21137311                       # number of HardPFReq MSHR miss ticks (Tick)
board.cache_hierarchy.l2-cache-0.HardPFReq.mshrMissLatency::total     21137311                       # number of HardPFReq MSHR miss ticks (Tick)
board.cache_hierarchy.l2-cache-0.HardPFReq.mshrMissRate::cache_hierarchy.l2-cache-0.prefetcher          inf                       # mshr miss rate for HardPFReq accesses (Ratio)
board.cache_hierarchy.l2-cache-0.HardPFReq.mshrMissRate::total          inf                       # mshr miss rate for HardPFReq accesses (Ratio)
board.cache_hierarchy.l2-cache-0.HardPFReq.avgMshrMissLatency::cache_hierarchy.l2-cache-0.prefetcher 60049.178977                       # average HardPFReq mshr miss latency ((Tick/Count))
board.cache_hierarchy.l2-cache-0.HardPFReq.avgMshrMissLatency::total 60049.178977                       # average HardPFReq mshr miss latency ((Tick/Count))
board.cache_hierarchy.l2-cache-0.ReadExReq.hits::processor.cores.core.data          501                       # number of ReadExReq hits (Count)
board.cache_hierarchy.l2-cache-0.ReadExReq.hits::total          501                       # number of ReadExReq hits (Count)
board.cache_hierarchy.l2-cache-0.ReadExReq.misses::processor.cores.core.data           87                       # number of ReadExReq misses (Count)
board.cache_hierarchy.l2-cache-0.ReadExReq.misses::total           87                       # number of ReadExReq misses (Count)
board.cache_hierarchy.l2-cache-0.ReadExReq.missLatency::processor.cores.core.data      6524000                       # number of ReadExReq miss ticks (Tick)
board.cache_hierarchy.l2-cache-0.ReadExReq.missLatency::total      6524000                       # number of ReadExReq miss ticks (Tick)
board.cache_hierarchy.l2-cache-0.ReadExReq.accesses::processor.cores.core.data          588                       # number of ReadExReq accesses(hits+misses) (Count)
board.cache_hierarchy.l2-cache-0.ReadExReq.accesses::total          588                       # number of ReadExReq accesses(hits+misses) (Count)
board.cache_hierarchy.l2-cache-0.ReadExReq.missRate::processor.cores.core.data     0.147959                       # miss rate for ReadExReq accesses (Ratio)
board.cache_hierarchy.l2-cache-0.ReadExReq.missRate::total     0.147959                       # miss rate for ReadExReq accesses (Ratio)
board.cache_hierarchy.l2-cache-0.ReadExReq.avgMissLatency::processor.cores.core.data 74988.505747                       # average ReadExReq miss latency ((Tick/Count))
board.cache_hierarchy.l2-cache-0.ReadExReq.avgMissLatency::total 74988.505747                       # average ReadExReq miss latency ((Tick/Count))
board.cache_hierarchy.l2-cache-0.ReadExReq.mshrMisses::processor.cores.core.data           87                       # number of ReadExReq MSHR misses (Count)
board.cache_hierarchy.l2-cache-0.ReadExReq.mshrMisses::total           87                       # number of ReadExReq MSHR misses (Count)
board.cache_hierarchy.l2-cache-0.ReadExReq.mshrMissLatency::processor.cores.core.data      6437000                       # number of ReadExReq MSHR miss ticks (Tick)
board.cache_hierarchy.l2-cache-0.ReadExReq.mshrMissLatency::total      6437000                       # number of ReadExReq MSHR miss ticks (Tick)
board.cache_hierarchy.l2-cache-0.ReadExReq.mshrMissRate::processor.cores.core.data     0.147959                       # mshr miss rate for ReadExReq accesses (Ratio)
board.cache_hierarchy.l2-cache-0.ReadExReq.mshrMissRate::total     0.147959                       # mshr miss rate for ReadExReq accesses (Ratio)
board.cache_hierarchy.l2-cache-0.ReadExReq.avgMshrMissLatency::processor.cores.core.data 73988.505747                       # average ReadExReq mshr miss latency ((Tick/Count))
board.cache_hierarchy.l2-cache-0.ReadExReq.avgMshrMissLatency::total 73988.505747                       # average ReadExReq mshr miss latency ((Tick/Count))
board.cache_hierarchy.l2-cache-0.ReadSharedReq.hits::cache_hierarchy.l1d-cache-0.prefetcher        83200                       # number of ReadSharedReq hits (Count)
board.cache_hierarchy.l2-cache-0.ReadSharedReq.hits::processor.cores.core.inst            1                       # number of ReadSharedReq hits (Count)
board.cache_hierarchy.l2-cache-0.ReadSharedReq.hits::processor.cores.core.data         4413                       # number of ReadSharedReq hits (Count)
board.cache_hierarchy.l2-cache-0.ReadSharedReq.hits::total        87614                       # number of ReadSharedReq hits (Count)
board.cache_hierarchy.l2-cache-0.ReadSharedReq.misses::cache_hierarchy.l1d-cache-0.prefetcher           46                       # number of ReadSharedReq misses (Count)
board.cache_hierarchy.l2-cache-0.ReadSharedReq.misses::processor.cores.core.inst          344                       # number of ReadSharedReq misses (Count)
board.cache_hierarchy.l2-cache-0.ReadSharedReq.misses::processor.cores.core.data          127                       # number of ReadSharedReq misses (Count)
board.cache_hierarchy.l2-cache-0.ReadSharedReq.misses::total          517                       # number of ReadSharedReq misses (Count)
board.cache_hierarchy.l2-cache-0.ReadSharedReq.missLatency::cache_hierarchy.l1d-cache-0.prefetcher      3796000                       # number of ReadSharedReq miss ticks (Tick)
board.cache_hierarchy.l2-cache-0.ReadSharedReq.missLatency::processor.cores.core.inst     23214000                       # number of ReadSharedReq miss ticks (Tick)
board.cache_hierarchy.l2-cache-0.ReadSharedReq.missLatency::processor.cores.core.data      8967000                       # number of ReadSharedReq miss ticks (Tick)
board.cache_hierarchy.l2-cache-0.ReadSharedReq.missLatency::total     35977000                       # number of ReadSharedReq miss ticks (Tick)
board.cache_hierarchy.l2-cache-0.ReadSharedReq.accesses::cache_hierarchy.l1d-cache-0.prefetcher        83246                       # number of ReadSharedReq accesses(hits+misses) (Count)
board.cache_hierarchy.l2-cache-0.ReadSharedReq.accesses::processor.cores.core.inst          345                       # number of ReadSharedReq accesses(hits+misses) (Count)
board.cache_hierarchy.l2-cache-0.ReadSharedReq.accesses::processor.cores.core.data         4540                       # number of ReadSharedReq accesses(hits+misses) (Count)
board.cache_hierarchy.l2-cache-0.ReadSharedReq.accesses::total        88131                       # number of ReadSharedReq accesses(hits+misses) (Count)
board.cache_hierarchy.l2-cache-0.ReadSharedReq.missRate::cache_hierarchy.l1d-cache-0.prefetcher     0.000553                       # miss rate for ReadSharedReq accesses (Ratio)
board.cache_hierarchy.l2-cache-0.ReadSharedReq.missRate::processor.cores.core.inst     0.997101                       # miss rate for ReadSharedReq accesses (Ratio)
board.cache_hierarchy.l2-cache-0.ReadSharedReq.missRate::processor.cores.core.data     0.027974                       # miss rate for ReadSharedReq accesses (Ratio)
board.cache_hierarchy.l2-cache-0.ReadSharedReq.missRate::total     0.005866                       # miss rate for ReadSharedReq accesses (Ratio)
board.cache_hierarchy.l2-cache-0.ReadSharedReq.avgMissLatency::cache_hierarchy.l1d-cache-0.prefetcher 82521.739130                       # average ReadSharedReq miss latency ((Tick/Count))
board.cache_hierarchy.l2-cache-0.ReadSharedReq.avgMissLatency::processor.cores.core.inst 67482.558140                       # average ReadSharedReq miss latency ((Tick/Count))
board.cache_hierarchy.l2-cache-0.ReadSharedReq.avgMissLatency::processor.cores.core.data 70606.299213                       # average ReadSharedReq miss latency ((Tick/Count))
board.cache_hierarchy.l2-cache-0.ReadSharedReq.avgMissLatency::total 69588.007737                       # average ReadSharedReq miss latency ((Tick/Count))
board.cache_hierarchy.l2-cache-0.ReadSharedReq.mshrHits::cache_hierarchy.l1d-cache-0.prefetcher           31                       # number of ReadSharedReq MSHR hits (Count)
board.cache_hierarchy.l2-cache-0.ReadSharedReq.mshrHits::total           31                       # number of ReadSharedReq MSHR hits (Count)
board.cache_hierarchy.l2-cache-0.ReadSharedReq.mshrMisses::cache_hierarchy.l1d-cache-0.prefetcher           15                       # number of ReadSharedReq MSHR misses (Count)
board.cache_hierarchy.l2-cache-0.ReadSharedReq.mshrMisses::processor.cores.core.inst          344                       # number of ReadSharedReq MSHR misses (Count)
board.cache_hierarchy.l2-cache-0.ReadSharedReq.mshrMisses::processor.cores.core.data          127                       # number of ReadSharedReq MSHR misses (Count)
board.cache_hierarchy.l2-cache-0.ReadSharedReq.mshrMisses::total          486                       # number of ReadSharedReq MSHR misses (Count)
board.cache_hierarchy.l2-cache-0.ReadSharedReq.mshrMissLatency::cache_hierarchy.l1d-cache-0.prefetcher      1680000                       # number of ReadSharedReq MSHR miss ticks (Tick)
board.cache_hierarchy.l2-cache-0.ReadSharedReq.mshrMissLatency::processor.cores.core.inst     22870000                       # number of ReadSharedReq MSHR miss ticks (Tick)
board.cache_hierarchy.l2-cache-0.ReadSharedReq.mshrMissLatency::processor.cores.core.data      8840000                       # number of ReadSharedReq MSHR miss ticks (Tick)
board.cache_hierarchy.l2-cache-0.ReadSharedReq.mshrMissLatency::total     33390000                       # number of ReadSharedReq MSHR miss ticks (Tick)
board.cache_hierarchy.l2-cache-0.ReadSharedReq.mshrMissRate::cache_hierarchy.l1d-cache-0.prefetcher     0.000180                       # mshr miss rate for ReadSharedReq accesses (Ratio)
board.cache_hierarchy.l2-cache-0.ReadSharedReq.mshrMissRate::processor.cores.core.inst     0.997101                       # mshr miss rate for ReadSharedReq accesses (Ratio)
board.cache_hierarchy.l2-cache-0.ReadSharedReq.mshrMissRate::processor.cores.core.data     0.027974                       # mshr miss rate for ReadSharedReq accesses (Ratio)
board.cache_hierarchy.l2-cache-0.ReadSharedReq.mshrMissRate::total     0.005515                       # mshr miss rate for ReadSharedReq accesses (Ratio)
board.cache_hierarchy.l2-cache-0.ReadSharedReq.avgMshrMissLatency::cache_hierarchy.l1d-cache-0.prefetcher       112000                       # average ReadSharedReq mshr miss latency ((Tick/Count))
board.cache_hierarchy.l2-cache-0.ReadSharedReq.avgMshrMissLatency::processor.cores.core.inst 66482.558140                       # average ReadSharedReq mshr miss latency ((Tick/Count))
board.cache_hierarchy.l2-cache-0.ReadSharedReq.avgMshrMissLatency::processor.cores.core.data 69606.299213                       # average ReadSharedReq mshr miss latency ((Tick/Count))
board.cache_hierarchy.l2-cache-0.ReadSharedReq.avgMshrMissLatency::total 68703.703704                       # average ReadSharedReq mshr miss latency ((Tick/Count))
board.cache_hierarchy.l2-cache-0.WritebackClean.hits::writebacks           90                       # number of WritebackClean hits (Count)
board.cache_hierarchy.l2-cache-0.WritebackClean.hits::total           90                       # number of WritebackClean hits (Count)
board.cache_hierarchy.l2-cache-0.WritebackClean.accesses::writebacks           90                       # number of WritebackClean accesses(hits+misses) (Count)
board.cache_hierarchy.l2-cache-0.WritebackClean.accesses::total           90                       # number of WritebackClean accesses(hits+misses) (Count)
board.cache_hierarchy.l2-cache-0.WritebackDirty.hits::writebacks         9785                       # number of WritebackDirty hits (Count)
board.cache_hierarchy.l2-cache-0.WritebackDirty.hits::total         9785                       # number of WritebackDirty hits (Count)
board.cache_hierarchy.l2-cache-0.WritebackDirty.accesses::writebacks         9785                       # number of WritebackDirty accesses(hits+misses) (Count)
board.cache_hierarchy.l2-cache-0.WritebackDirty.accesses::total         9785                       # number of WritebackDirty accesses(hits+misses) (Count)
board.cache_hierarchy.l2-cache-0.power_state.pwrStateResidencyTicks::UNDEFINED  10586976000                       # Cumulative time (in ticks) in various power states (Tick)
board.cache_hierarchy.l2-cache-0.prefetcher.demandMshrMisses          573                       # demands not covered by prefetchs (Count)
board.cache_hierarchy.l2-cache-0.prefetcher.pfIssued         1242                       # number of hwpf issued (Count)
board.cache_hierarchy.l2-cache-0.prefetcher.pfUseful          311                       # number of useful prefetch (Count)
board.cache_hierarchy.l2-cache-0.prefetcher.pfUsefulButMiss            0                       # number of hit on prefetch but cache block is not in an usable state (Count)
board.cache_hierarchy.l2-cache-0.prefetcher.accuracy     0.250403                       # accuracy of the prefetcher (Count)
board.cache_hierarchy.l2-cache-0.prefetcher.coverage     0.351810                       # coverage brought by this prefetcher (Count)
board.cache_hierarchy.l2-cache-0.prefetcher.pfHitInCache          813                       # number of prefetches hitting in cache (Count)
board.cache_hierarchy.l2-cache-0.prefetcher.pfHitInMSHR           77                       # number of prefetches hitting in a MSHR (Count)
board.cache_hierarchy.l2-cache-0.prefetcher.pfHitInWB            0                       # number of prefetches hit in the Write Buffer (Count)
board.cache_hierarchy.l2-cache-0.prefetcher.pfLate          890                       # number of late prefetches (hitting in cache, MSHR or WB) (Count)
board.cache_hierarchy.l2-cache-0.prefetcher.pfIdentified         1374                       # number of prefetch candidates identified (Count)
board.cache_hierarchy.l2-cache-0.prefetcher.pfBufferHit           84                       # number of redundant prefetches already in prefetch queue (Count)
board.cache_hierarchy.l2-cache-0.prefetcher.pfInCache            0                       # number of redundant prefetches already in cache/mshr dropped (Count)
board.cache_hierarchy.l2-cache-0.prefetcher.pfRemovedDemand           33                       # number of prefetches dropped due to a demand for the same address (Count)
board.cache_hierarchy.l2-cache-0.prefetcher.pfRemovedFull            0                       # number of prefetches dropped due to prefetch queue size (Count)
board.cache_hierarchy.l2-cache-0.prefetcher.pfSpanPage           54                       # number of prefetches that crossed the page (Count)
board.cache_hierarchy.l2-cache-0.prefetcher.pfUsefulSpanPage           47                       # number of prefetches that is useful and crossed the page (Count)
board.cache_hierarchy.l2-cache-0.prefetcher.power_state.pwrStateResidencyTicks::UNDEFINED  10586976000                       # Cumulative time (in ticks) in various power states (Tick)
board.cache_hierarchy.l2-cache-0.tags.tagsInUse   854.576977                       # Average ticks per tags in use ((Tick/Count))
board.cache_hierarchy.l2-cache-0.tags.totalRefs       177248                       # Total number of references to valid blocks. (Count)
board.cache_hierarchy.l2-cache-0.tags.sampledRefs          925                       # Sample count of references to valid blocks. (Count)
board.cache_hierarchy.l2-cache-0.tags.avgRefs   191.619459                       # Average number of references to valid blocks. ((Count/Count))
board.cache_hierarchy.l2-cache-0.tags.warmupTick        77000                       # The tick when the warmup percentage was hit. (Tick)
board.cache_hierarchy.l2-cache-0.tags.occupancies::cache_hierarchy.l1d-cache-0.prefetcher    11.613802                       # Average occupied blocks per tick, per requestor ((Count/Tick))
board.cache_hierarchy.l2-cache-0.tags.occupancies::cache_hierarchy.l2-cache-0.prefetcher   337.719059                       # Average occupied blocks per tick, per requestor ((Count/Tick))
board.cache_hierarchy.l2-cache-0.tags.occupancies::processor.cores.core.inst   302.196319                       # Average occupied blocks per tick, per requestor ((Count/Tick))
board.cache_hierarchy.l2-cache-0.tags.occupancies::processor.cores.core.data   203.047797                       # Average occupied blocks per tick, per requestor ((Count/Tick))
board.cache_hierarchy.l2-cache-0.tags.avgOccs::cache_hierarchy.l1d-cache-0.prefetcher     0.002835                       # Average percentage of cache occupancy ((Ratio/Tick))
board.cache_hierarchy.l2-cache-0.tags.avgOccs::cache_hierarchy.l2-cache-0.prefetcher     0.082451                       # Average percentage of cache occupancy ((Ratio/Tick))
board.cache_hierarchy.l2-cache-0.tags.avgOccs::processor.cores.core.inst     0.073778                       # Average percentage of cache occupancy ((Ratio/Tick))
board.cache_hierarchy.l2-cache-0.tags.avgOccs::processor.cores.core.data     0.049572                       # Average percentage of cache occupancy ((Ratio/Tick))
board.cache_hierarchy.l2-cache-0.tags.avgOccs::total     0.208637                       # Average percentage of cache occupancy ((Ratio/Tick))
board.cache_hierarchy.l2-cache-0.tags.occupanciesTaskId::1022          367                       # Occupied blocks per task id (Count)
board.cache_hierarchy.l2-cache-0.tags.occupanciesTaskId::1024          558                       # Occupied blocks per task id (Count)
board.cache_hierarchy.l2-cache-0.tags.ageTaskId_1022::2            1                       # Occupied blocks per task id, per block age (Count)
board.cache_hierarchy.l2-cache-0.tags.ageTaskId_1022::3           32                       # Occupied blocks per task id, per block age (Count)
board.cache_hierarchy.l2-cache-0.tags.ageTaskId_1022::4          334                       # Occupied blocks per task id, per block age (Count)
board.cache_hierarchy.l2-cache-0.tags.ageTaskId_1024::0           50                       # Occupied blocks per task id, per block age (Count)
board.cache_hierarchy.l2-cache-0.tags.ageTaskId_1024::3           22                       # Occupied blocks per task id, per block age (Count)
board.cache_hierarchy.l2-cache-0.tags.ageTaskId_1024::4          486                       # Occupied blocks per task id, per block age (Count)
board.cache_hierarchy.l2-cache-0.tags.ratioOccsTaskId::1022     0.089600                       # Ratio of occupied blocks and all blocks, per task id (Ratio)
board.cache_hierarchy.l2-cache-0.tags.ratioOccsTaskId::1024     0.136230                       # Ratio of occupied blocks and all blocks, per task id (Ratio)
board.cache_hierarchy.l2-cache-0.tags.tagAccesses      2831757                       # Number of tag accesses (Count)
board.cache_hierarchy.l2-cache-0.tags.dataAccesses      2831757                       # Number of data accesses (Count)
board.cache_hierarchy.l2-cache-0.tags.power_state.pwrStateResidencyTicks::UNDEFINED  10586976000                       # Cumulative time (in ticks) in various power states (Tick)
board.cache_hierarchy.l2buses.transDist::ReadResp        88131                       # Transaction distribution (Count)
board.cache_hierarchy.l2buses.transDist::WritebackDirty         9785                       # Transaction distribution (Count)
board.cache_hierarchy.l2buses.transDist::WritebackClean           90                       # Transaction distribution (Count)
board.cache_hierarchy.l2buses.transDist::CleanEvict        78333                       # Transaction distribution (Count)
[...]
board.processor.cores.core.commitStats0.committedInstType::IntDiv        12824      0.22%     56.77% # Class of committed instruction. (Count)
board.processor.cores.core.commitStats0.committedInstType::FloatAdd            0      0.00%     56.77% # Class of committed instruction. (Count)
board.processor.cores.core.commitStats0.committedInstType::FloatCmp            0      0.00%     56.77% # Class of committed instruction. (Count)
board.processor.cores.core.commitStats0.committedInstType::FloatCvt        12600      0.21%     56.98% # Class of committed instruction. (Count)
board.processor.cores.core.commitStats0.committedInstType::FloatMult            0      0.00%     56.98% # Class of committed instruction. (Count)
board.processor.cores.core.commitStats0.committedInstType::FloatMultAcc            0      0.00%     56.98% # Class of committed instruction. (Count)
board.processor.cores.core.commitStats0.committedInstType::FloatDiv        16800      0.28%     57.26% # Class of committed instruction. (Count)
board.processor.cores.core.commitStats0.committedInstType::FloatMisc            0      0.00%     57.26% # Class of committed instruction. (Count)
board.processor.cores.core.commitStats0.committedInstType::FloatSqrt            0      0.00%     57.26% # Class of committed instruction. (Count)
board.processor.cores.core.commitStats0.committedInstType::SimdAdd            0      0.00%     57.26% # Class of committed instruction. (Count)
board.processor.cores.core.commitStats0.committedInstType::SimdAddAcc            0      0.00%     57.26% # Class of committed instruction. (Count)
board.processor.cores.core.commitStats0.committedInstType::SimdAlu            0      0.00%     57.26% # Class of committed instruction. (Count)
board.processor.cores.core.commitStats0.committedInstType::SimdCmp            0      0.00%     57.26% # Class of committed instruction. (Count)
board.processor.cores.core.commitStats0.committedInstType::SimdCvt            0      0.00%     57.26% # Class of committed instruction. (Count)
board.processor.cores.core.commitStats0.committedInstType::SimdMisc            0      0.00%     57.26% # Class of committed instruction. (Count)
board.processor.cores.core.commitStats0.committedInstType::SimdMult            0      0.00%     57.26% # Class of committed instruction. (Count)
board.processor.cores.core.commitStats0.committedInstType::SimdMultAcc            0      0.00%     57.26% # Class of committed instruction. (Count)
board.processor.cores.core.commitStats0.committedInstType::SimdMatMultAcc            0      0.00%     57.26% # Class of committed instruction. (Count)
board.processor.cores.core.commitStats0.committedInstType::SimdShift            0      0.00%     57.26% # Class of committed instruction. (Count)
board.processor.cores.core.commitStats0.committedInstType::SimdShiftAcc            0      0.00%     57.26% # Class of committed instruction. (Count)
board.processor.cores.core.commitStats0.committedInstType::SimdDiv            0      0.00%     57.26% # Class of committed instruction. (Count)
board.processor.cores.core.commitStats0.committedInstType::SimdSqrt            0      0.00%     57.26% # Class of committed instruction. (Count)
board.processor.cores.core.commitStats0.committedInstType::SimdFloatAdd            0      0.00%     57.26% # Class of committed instruction. (Count)
board.processor.cores.core.commitStats0.committedInstType::SimdFloatAlu            0      0.00%     57.26% # Class of committed instruction. (Count)
board.processor.cores.core.commitStats0.committedInstType::SimdFloatCmp            0      0.00%     57.26% # Class of committed instruction. (Count)
board.processor.cores.core.commitStats0.committedInstType::SimdFloatCvt            0      0.00%     57.26% # Class of committed instruction. (Count)
board.processor.cores.core.commitStats0.committedInstType::SimdFloatDiv            0      0.00%     57.26% # Class of committed instruction. (Count)
board.processor.cores.core.commitStats0.committedInstType::SimdFloatMisc            0      0.00%     57.26% # Class of committed instruction. (Count)
board.processor.cores.core.commitStats0.committedInstType::SimdFloatMult            0      0.00%     57.26% # Class of committed instruction. (Count)
board.processor.cores.core.commitStats0.committedInstType::SimdFloatMultAcc            0      0.00%     57.26% # Class of committed instruction. (Count)
board.processor.cores.core.commitStats0.committedInstType::SimdFloatMatMultAcc            0      0.00%     57.26% # Class of committed instruction. (Count)
board.processor.cores.core.commitStats0.committedInstType::SimdFloatSqrt            0      0.00%     57.26% # Class of committed instruction. (Count)
board.processor.cores.core.commitStats0.committedInstType::SimdReduceAdd            0      0.00%     57.26% # Class of committed instruction. (Count)
board.processor.cores.core.commitStats0.committedInstType::SimdReduceAlu            0      0.00%     57.26% # Class of committed instruction. (Count)
board.processor.cores.core.commitStats0.committedInstType::SimdReduceCmp            0      0.00%     57.26% # Class of committed instruction. (Count)
board.processor.cores.core.commitStats0.committedInstType::SimdFloatReduceAdd            0      0.00%     57.26% # Class of committed instruction. (Count)
board.processor.cores.core.commitStats0.committedInstType::SimdFloatReduceCmp            0      0.00%     57.26% # Class of committed instruction. (Count)
board.processor.cores.core.commitStats0.committedInstType::SimdAes            0      0.00%     57.26% # Class of committed instruction. (Count)
board.processor.cores.core.commitStats0.committedInstType::SimdAesMix            0      0.00%     57.26% # Class of committed instruction. (Count)
board.processor.cores.core.commitStats0.committedInstType::SimdSha1Hash            0      0.00%     57.26% # Class of committed instruction. (Count)
board.processor.cores.core.commitStats0.committedInstType::SimdSha1Hash2            0      0.00%     57.26% # Class of committed instruction. (Count)
board.processor.cores.core.commitStats0.committedInstType::SimdSha256Hash            0      0.00%     57.26% # Class of committed instruction. (Count)
board.processor.cores.core.commitStats0.committedInstType::SimdSha256Hash2            0      0.00%     57.26% # Class of committed instruction. (Count)
board.processor.cores.core.commitStats0.committedInstType::SimdShaSigma2            0      0.00%     57.26% # Class of committed instruction. (Count)
board.processor.cores.core.commitStats0.committedInstType::SimdShaSigma3            0      0.00%     57.26% # Class of committed instruction. (Count)
board.processor.cores.core.commitStats0.committedInstType::SimdPredAlu            0      0.00%     57.26% # Class of committed instruction. (Count)
board.processor.cores.core.commitStats0.committedInstType::Matrix            0      0.00%     57.26% # Class of committed instruction. (Count)
board.processor.cores.core.commitStats0.committedInstType::MatrixMov            0      0.00%     57.26% # Class of committed instruction. (Count)
board.processor.cores.core.commitStats0.committedInstType::MatrixOP            0      0.00%     57.26% # Class of committed instruction. (Count)
board.processor.cores.core.commitStats0.committedInstType::MemRead      1582957     26.54%     83.80% # Class of committed instruction. (Count)
board.processor.cores.core.commitStats0.committedInstType::MemWrite       966218     16.20%    100.00% # Class of committed instruction. (Count)
board.processor.cores.core.commitStats0.committedInstType::FloatMemRead            0      0.00%    100.00% # Class of committed instruction. (Count)
board.processor.cores.core.commitStats0.committedInstType::FloatMemWrite           12      0.00%    100.00% # Class of committed instruction. (Count)
board.processor.cores.core.commitStats0.committedInstType::IprAccess            0      0.00%    100.00% # Class of committed instruction. (Count)
board.processor.cores.core.commitStats0.committedInstType::InstPrefetch            0      0.00%    100.00% # Class of committed instruction. (Count)
board.processor.cores.core.commitStats0.committedInstType::SimdUnitStrideLoad            0      0.00%    100.00% # Class of committed instruction. (Count)
board.processor.cores.core.commitStats0.committedInstType::SimdUnitStrideStore            0      0.00%    100.00% # Class of committed instruction. (Count)
board.processor.cores.core.commitStats0.committedInstType::SimdUnitStrideMaskLoad            0      0.00%    100.00% # Class of committed instruction. (Count)
board.processor.cores.core.commitStats0.committedInstType::SimdUnitStrideMaskStore            0      0.00%    100.00% # Class of committed instruction. (Count)
board.processor.cores.core.commitStats0.committedInstType::SimdStridedLoad            0      0.00%    100.00% # Class of committed instruction. (Count)
board.processor.cores.core.commitStats0.committedInstType::SimdStridedStore            0      0.00%    100.00% # Class of committed instruction. (Count)
board.processor.cores.core.commitStats0.committedInstType::SimdIndexedLoad            0      0.00%    100.00% # Class of committed instruction. (Count)
board.processor.cores.core.commitStats0.committedInstType::SimdIndexedStore            0      0.00%    100.00% # Class of committed instruction. (Count)
board.processor.cores.core.commitStats0.committedInstType::SimdWholeRegisterLoad            0      0.00%    100.00% # Class of committed instruction. (Count)
board.processor.cores.core.commitStats0.committedInstType::SimdWholeRegisterStore            0      0.00%    100.00% # Class of committed instruction. (Count)
board.processor.cores.core.commitStats0.committedInstType::SimdUnitStrideFaultOnlyFirstLoad            0      0.00%    100.00% # Class of committed instruction. (Count)
board.processor.cores.core.commitStats0.committedInstType::SimdUnitStrideSegmentedLoad            0      0.00%    100.00% # Class of committed instruction. (Count)
board.processor.cores.core.commitStats0.committedInstType::SimdUnitStrideSegmentedStore            0      0.00%    100.00% # Class of committed instruction. (Count)
board.processor.cores.core.commitStats0.committedInstType::SimdExt            0      0.00%    100.00% # Class of committed instruction. (Count)
board.processor.cores.core.commitStats0.committedInstType::SimdFloatExt            0      0.00%    100.00% # Class of committed instruction. (Count)
board.processor.cores.core.commitStats0.committedInstType::SimdConfig            0      0.00%    100.00% # Class of committed instruction. (Count)
board.processor.cores.core.commitStats0.committedInstType::total      5964483                       # Class of committed instruction. (Count)
board.processor.cores.core.commitStats0.committedControl::IsControl       639838                       # Class of control type instructions committed (Count)
board.processor.cores.core.commitStats0.committedControl::IsDirectControl       475947                       # Class of control type instructions committed (Count)
board.processor.cores.core.commitStats0.committedControl::IsIndirectControl       163891                       # Class of control type instructions committed (Count)
board.processor.cores.core.commitStats0.committedControl::IsCondControl       315706                       # Class of control type instructions committed (Count)
board.processor.cores.core.commitStats0.committedControl::IsUncondControl       324132                       # Class of control type instructions committed (Count)
board.processor.cores.core.commitStats0.committedControl::IsCall       159173                       # Class of control type instructions committed (Count)
board.processor.cores.core.commitStats0.committedControl::IsReturn       159168                       # Class of control type instructions committed (Count)
board.processor.cores.core.exec_context.thread_0.numMatAluAccesses            0                       # Number of matrix alu accesses (Count)
board.processor.cores.core.exec_context.thread_0.numCallsReturns       318341                       # Number of times a function call or return occured (Count)
board.processor.cores.core.exec_context.thread_0.numMatInsts            0                       # Number of matrix instructions (Count)
board.processor.cores.core.exec_context.thread_0.numIdleCycles     0.001000                       # Number of idle cycles (Cycle)
board.processor.cores.core.exec_context.thread_0.numBusyCycles 10586975.999000                       # Number of busy cycles (Cycle)
board.processor.cores.core.exec_context.thread_0.notIdleFraction     1.000000                       # Percentage of non-idle cycles (Ratio)
board.processor.cores.core.exec_context.thread_0.idleFraction     0.000000                       # Percentage of idle cycles (Ratio)
board.processor.cores.core.executeStats0.numInsts            0                       # Number of executed instructions (Count)
board.processor.cores.core.executeStats0.numNop            0                       # Number of nop insts executed (Count)
board.processor.cores.core.executeStats0.numBranches            0                       # Number of branches executed (Count)
board.processor.cores.core.executeStats0.numLoadInsts            0                       # Number of load instructions executed (Count)
board.processor.cores.core.executeStats0.numStoreInsts      2549187                       # Number of stores executed (Count)
board.processor.cores.core.executeStats0.instRate            0                       # Inst execution rate ((Count/Cycle))
board.processor.cores.core.executeStats0.numFpAluAccesses        29412                       # Number of float alu accesses (Count)
board.processor.cores.core.executeStats0.numFpRegReads        37812                       # Number of times the floating registers were read (Count)
board.processor.cores.core.executeStats0.numFpRegWrites        25200                       # Number of times the floating registers were written (Count)
board.processor.cores.core.executeStats0.numIntAluAccesses      5941892                       # Number of integer alu accesses (Count)
board.processor.cores.core.executeStats0.numIntRegReads      6794250                       # Number of times the integer registers were read (Count)
board.processor.cores.core.executeStats0.numIntRegWrites      4486892                       # Number of times the integer registers were written (Count)
board.processor.cores.core.executeStats0.numMemRefs      2549187                       # Number of memory refs (Count)
board.processor.cores.core.executeStats0.numMiscRegReads       366026                       # Number of times the Misc registers were read (Count)
board.processor.cores.core.executeStats0.numMiscRegWrites        58800                       # Number of times the Misc registers were written (Count)
board.processor.cores.core.executeStats0.numVecAluAccesses            0                       # Number of vector alu accesses (Count)
board.processor.cores.core.executeStats0.numDiscardedOps            0                       # Number of ops (including micro ops) which were discarded before commit (Count)
board.processor.cores.core.fetchStats0.numInsts      5964444                       # Number of instructions fetched (thread level) (Count)
board.processor.cores.core.fetchStats0.numOps      5964483                       # Number of ops (including micro ops) fetched (thread level) (Count)
board.processor.cores.core.fetchStats0.fetchRate     0.563376                       # Number of inst fetches per cycle ((Count/Cycle))
board.processor.cores.core.fetchStats0.numBranches       639838                       # Number of branches fetched (Count)
board.processor.cores.core.fetchStats0.branchRate     0.060436                       # Number of branch fetches per cycle (Ratio)
board.processor.cores.core.fetchStats0.numFetchSuspends            0                       # Number of times Execute suspended instruction fetching (Count)
board.processor.cores.core.mmu.dtb.readHits            0                       # read hits (Count)
board.processor.cores.core.mmu.dtb.readMisses            0                       # read misses (Count)
board.processor.cores.core.mmu.dtb.readAccesses            0                       # read accesses (Count)
board.processor.cores.core.mmu.dtb.writeHits            0                       # write hits (Count)
board.processor.cores.core.mmu.dtb.writeMisses            0                       # write misses (Count)
board.processor.cores.core.mmu.dtb.writeAccesses            0                       # write accesses (Count)
board.processor.cores.core.mmu.dtb.hits             0                       # Total TLB (read and write) hits (Count)
board.processor.cores.core.mmu.dtb.misses            0                       # Total TLB (read and write) misses (Count)
board.processor.cores.core.mmu.dtb.accesses            0                       # Total TLB (read and write) accesses (Count)
board.processor.cores.core.mmu.dtb.walker.num_4kb_walks            0                       # Completed page walks with 4KB pages (Count)
board.processor.cores.core.mmu.dtb.walker.num_2mb_walks            0                       # Completed page walks with 2MB pages (Count)
board.processor.cores.core.mmu.dtb.walker.power_state.pwrStateResidencyTicks::UNDEFINED  10586976000                       # Cumulative time (in ticks) in various power states (Tick)
board.processor.cores.core.mmu.itb.readHits            0                       # read hits (Count)
board.processor.cores.core.mmu.itb.readMisses            0                       # read misses (Count)
board.processor.cores.core.mmu.itb.readAccesses            0                       # read accesses (Count)
board.processor.cores.core.mmu.itb.writeHits            0                       # write hits (Count)
board.processor.cores.core.mmu.itb.writeMisses            0                       # write misses (Count)
board.processor.cores.core.mmu.itb.writeAccesses            0                       # write accesses (Count)
board.processor.cores.core.mmu.itb.hits             0                       # Total TLB (read and write) hits (Count)
board.processor.cores.core.mmu.itb.misses            0                       # Total TLB (read and write) misses (Count)
board.processor.cores.core.mmu.itb.accesses            0                       # Total TLB (read and write) accesses (Count)
board.processor.cores.core.mmu.itb.walker.num_4kb_walks            0                       # Completed page walks with 4KB pages (Count)
board.processor.cores.core.mmu.itb.walker.num_2mb_walks            0                       # Completed page walks with 2MB pages (Count)
board.processor.cores.core.mmu.itb.walker.power_state.pwrStateResidencyTicks::UNDEFINED  10586976000                       # Cumulative time (in ticks) in various power states (Tick)
board.processor.cores.core.power_state.pwrStateResidencyTicks::ON  10586976000                       # Cumulative time (in ticks) in various power states (Tick)
board.processor.cores.core.thread_0.numInsts            0                       # Number of Instructions committed (Count)
board.processor.cores.core.thread_0.numOps            0                       # Number of Ops committed (Count)
board.processor.cores.core.thread_0.numMemRefs            0                       # Number of Memory References (Count)
board.processor.cores.core.workload.numSyscalls           14                       # Number of system calls (Count)
board.workload.inst.arm                             0                       # number of arm instructions executed (Count)
board.workload.inst.quiesce                         0                       # number of quiesce instructions executed (Count)

---------- End Simulation Statistics   ----------
