
---------- Begin Simulation Statistics ----------
simSeconds                                   0.001216                       # Number of seconds simulated (Second)
simTicks                                   1215931000                       # Number of ticks simulated (Tick)
finalTick                                  1215931000                       # Number of ticks from beginning of simulation (restored from checkpoints and never reset) (Tick)
simFreq                                  1000000000000                       # The number of ticks per simulated second ((Tick/Second))
hostSeconds                                      1.03                       # Real time elapsed on the host (Second)
hostTickRate                               1180961548                       # The number of ticks simulated per host second (ticks/s) ((Tick/Second))
hostMemory                                    2242416                       # Number of bytes of host memory used (Byte)
simInsts                                       672389                       # Number of instructions simulated (Count)
simOps                                         672426                       # Number of ops (including micro ops) simulated (Count)
hostInstRate                                   652954                       # Simulator instruction rate (inst/s) ((Count/Second))
hostOpRate                                     652984                       # Simulator op (including micro ops) rate (op/s) ((Count/Second))
board.cache_hierarchy.l1d-cache-0.demandHits::processor.cores.core.data       265716                       # number of demand (read+write) hits (Count)
board.cache_hierarchy.l1d-cache-0.demandHits::total       265716                       # number of demand (read+write) hits (Count)
board.cache_hierarchy.l1d-cache-0.overallHits::processor.cores.core.data       265716                       # number of overall hits (Count)
board.cache_hierarchy.l1d-cache-0.overallHits::total       265716                       # number of overall hits (Count)
board.cache_hierarchy.l1d-cache-0.demandMisses::processor.cores.core.data         1699                       # number of demand (read+write) misses (Count)
board.cache_hierarchy.l1d-cache-0.demandMisses::total         1699                       # number of demand (read+write) misses (Count)
board.cache_hierarchy.l1d-cache-0.overallMisses::processor.cores.core.data         1699                       # number of overall misses (Count)
board.cache_hierarchy.l1d-cache-0.overallMisses::total         1699                       # number of overall misses (Count)
board.cache_hierarchy.l1d-cache-0.demandMissLatency::processor.cores.core.data     36016000                       # number of demand (read+write) miss ticks (Tick)
board.cache_hierarchy.l1d-cache-0.demandMissLatency::total     36016000                       # number of demand (read+write) miss ticks (Tick)
board.cache_hierarchy.l1d-cache-0.overallMissLatency::processor.cores.core.data     36016000                       # number of overall miss ticks (Tick)
board.cache_hierarchy.l1d-cache-0.overallMissLatency::total     36016000                       # number of overall miss ticks (Tick)
board.cache_hierarchy.l1d-cache-0.demandAccesses::processor.cores.core.data       267415                       # number of demand (read+write) accesses (Count)
board.cache_hierarchy.l1d-cache-0.demandAccesses::total       267415                       # number of demand (read+write) accesses (Count)
board.cache_hierarchy.l1d-cache-0.overallAccesses::processor.cores.core.data       267415                       # number of overall (read+write) accesses (Count)
board.cache_hierarchy.l1d-cache-0.overallAccesses::total       267415                       # number of overall (read+write) accesses (Count)
board.cache_hierarchy.l1d-cache-0.demandMissRate::processor.cores.core.data     0.006353                       # miss rate for demand accesses (Ratio)
board.cache_hierarchy.l1d-cache-0.demandMissRate::total     0.006353                       # miss rate for demand accesses (Ratio)
board.cache_hierarchy.l1d-cache-0.overallMissRate::processor.cores.core.data     0.006353                       # miss rate for overall accesses (Ratio)
board.cache_hierarchy.l1d-cache-0.overallMissRate::total     0.006353                       # miss rate for overall accesses (Ratio)
board.cache_hierarchy.l1d-cache-0.demandAvgMissLatency::processor.cores.core.data 21198.351972                       # average overall miss latency in ticks ((Tick/Count))
board.cache_hierarchy.l1d-cache-0.demandAvgMissLatency::total 21198.351972                       # average overall miss latency in ticks ((Tick/Count))
board.cache_hierarchy.l1d-cache-0.overallAvgMissLatency::processor.cores.core.data 21198.351972                       # average overall miss latency ((Tick/Count))
board.cache_hierarchy.l1d-cache-0.overallAvgMissLatency::total 21198.351972                       # average overall miss latency ((Tick/Count))
board.cache_hierarchy.l1d-cache-0.blockedCycles::no_mshrs            0                       # number of cycles access was blocked (Cycle)
board.cache_hierarchy.l1d-cache-0.blockedCycles::no_targets            0                       # number of cycles access was blocked (Cycle)
board.cache_hierarchy.l1d-cache-0.blockedCauses::no_mshrs            0                       # number of times access was blocked (Count)
board.cache_hierarchy.l1d-cache-0.blockedCauses::no_targets            0                       # number of times access was blocked (Count)
board.cache_hierarchy.l1d-cache-0.avgBlocked::no_mshrs          nan                       # average number of cycles each access was blocked ((Cycle/Count))
board.cache_hierarchy.l1d-cache-0.avgBlocked::no_targets          nan                       # average number of cycles each access was blocked ((Cycle/Count))
board.cache_hierarchy.l1d-cache-0.writebacks::writebacks          765                       # number of writebacks (Count)
board.cache_hierarchy.l1d-cache-0.writebacks::total          765                       # number of writebacks (Count)
board.cache_hierarchy.l1d-cache-0.demandMshrMisses::processor.cores.core.data         1699                       # number of demand (read+write) MSHR misses (Count)
board.cache_hierarchy.l1d-cache-0.demandMshrMisses::total         1699                       # number of demand (read+write) MSHR misses (Count)
board.cache_hierarchy.l1d-cache-0.overallMshrMisses::cache_hierarchy.l1d-cache-0.prefetcher         7194                       # number of overall MSHR misses (Count)
board.cache_hierarchy.l1d-cache-0.overallMshrMisses::processor.cores.core.data         1699                       # number of overall MSHR misses (Count)
board.cache_hierarchy.l1d-cache-0.overallMshrMisses::total         8893                       # number of overall MSHR misses (Count)
board.cache_hierarchy.l1d-cache-0.demandMshrMissLatency::processor.cores.core.data     34317000                       # number of demand (read+write) MSHR miss ticks (Tick)
board.cache_hierarchy.l1d-cache-0.demandMshrMissLatency::total     34317000                       # number of demand (read+write) MSHR miss ticks (Tick)
board.cache_hierarchy.l1d-cache-0.overallMshrMissLatency::cache_hierarchy.l1d-cache-0.prefetcher    105532741                       # number of overall MSHR miss ticks (Tick)
board.cache_hierarchy.l1d-cache-0.overallMshrMissLatency::processor.cores.core.data     34317000                       # number of overall MSHR miss ticks (Tick)
board.cache_hierarchy.l1d-cache-0.overallMshrMissLatency::total    139849741                       # number of overall MSHR miss ticks (Tick)
board.cache_hierarchy.l1d-cache-0.demandMshrMissRate::processor.cores.core.data     0.006353                       # mshr miss ratio for demand accesses (Ratio)
board.cache_hierarchy.l1d-cache-0.demandMshrMissRate::total     0.006353                       # mshr miss ratio for demand accesses (Ratio)
board.cache_hierarchy.l1d-cache-0.overallMshrMissRate::cache_hierarchy.l1d-cache-0.prefetcher          inf                       # mshr miss ratio for overall accesses (Ratio)
board.cache_hierarchy.l1d-cache-0.overallMshrMissRate::processor.cores.core.data     0.006353                       # mshr miss ratio for overall accesses (Ratio)
board.cache_hierarchy.l1d-cache-0.overallMshrMissRate::total     0.033255                       # mshr miss ratio for overall accesses (Ratio)
board.cache_hierarchy.l1d-cache-0.demandAvgMshrMissLatency::processor.cores.core.data 20198.351972                       # average overall mshr miss latency ((Tick/Count))
board.cache_hierarchy.l1d-cache-0.demandAvgMshrMissLatency::total 20198.351972                       # average overall mshr miss latency ((Tick/Count))
board.cache_hierarchy.l1d-cache-0.overallAvgMshrMissLatency::cache_hierarchy.l1d-cache-0.prefetcher 14669.549764                       # average overall mshr miss latency ((Tick/Count))
board.cache_hierarchy.l1d-cache-0.overallAvgMshrMissLatency::processor.cores.core.data 20198.351972                       # average overall mshr miss latency ((Tick/Count))
board.cache_hierarchy.l1d-cache-0.overallAvgMshrMissLatency::total 15725.822670                       # average overall mshr miss latency ((Tick/Count))
board.cache_hierarchy.l1d-cache-0.replacements         8641                       # number of replacements (Count)
board.cache_hierarchy.l1d-cache-0.HardPFReq.mshrMisses::cache_hierarchy.l1d-cache-0.prefetcher         7194                       # number of HardPFReq MSHR misses (Count)
board.cache_hierarchy.l1d-cache-0.HardPFReq.mshrMisses::total         7194                       # number of HardPFReq MSHR misses (Count)
board.cache_hierarchy.l1d-cache-0.HardPFReq.mshrMissLatency::cache_hierarchy.l1d-cache-0.prefetcher    105532741                       # number of HardPFReq MSHR miss ticks (Tick)
board.cache_hierarchy.l1d-cache-0.HardPFReq.mshrMissLatency::total    105532741                       # number of HardPFReq MSHR miss ticks (Tick)
board.cache_hierarchy.l1d-cache-0.HardPFReq.mshrMissRate::cache_hierarchy.l1d-cache-0.prefetcher          inf                       # mshr miss rate for HardPFReq accesses (Ratio)
board.cache_hierarchy.l1d-cache-0.HardPFReq.mshrMissRate::total          inf                       # mshr miss rate for HardPFReq accesses (Ratio)
board.cache_hierarchy.l1d-cache-0.HardPFReq.avgMshrMissLatency::cache_hierarchy.l1d-cache-0.prefetcher 14669.549764                       # average HardPFReq mshr miss latency ((Tick/Count))
board.cache_hierarchy.l1d-cache-0.HardPFReq.avgMshrMissLatency::total 14669.549764                       # average HardPFReq mshr miss latency ((Tick/Count))
board.cache_hierarchy.l1d-cache-0.LoadLockedReq.hits::processor.cores.core.data           34                       # number of LoadLockedReq hits (Count)
board.cache_hierarchy.l1d-cache-0.LoadLockedReq.hits::total           34                       # number of LoadLockedReq hits (Count)
board.cache_hierarchy.l1d-cache-0.LoadLockedReq.misses::processor.cores.core.data            3                       # number of LoadLockedReq misses (Count)
board.cache_hierarchy.l1d-cache-0.LoadLockedReq.misses::total            3                       # number of LoadLockedReq misses (Count)
board.cache_hierarchy.l1d-cache-0.LoadLockedReq.missLatency::processor.cores.core.data       170000                       # number of LoadLockedReq miss ticks (Tick)
board.cache_hierarchy.l1d-cache-0.LoadLockedReq.missLatency::total       170000                       # number of LoadLockedReq miss ticks (Tick)
board.cache_hierarchy.l1d-cache-0.LoadLockedReq.accesses::processor.cores.core.data           37                       # number of LoadLockedReq accesses(hits+misses) (Count)
board.cache_hierarchy.l1d-cache-0.LoadLockedReq.accesses::total           37                       # number of LoadLockedReq accesses(hits+misses) (Count)
board.cache_hierarchy.l1d-cache-0.LoadLockedReq.missRate::processor.cores.core.data     0.081081                       # miss rate for LoadLockedReq accesses (Ratio)
board.cache_hierarchy.l1d-cache-0.LoadLockedReq.missRate::total     0.081081                       # miss rate for LoadLockedReq accesses (Ratio)
board.cache_hierarchy.l1d-cache-0.LoadLockedReq.avgMissLatency::processor.cores.core.data 56666.666667                       # average LoadLockedReq miss latency ((Tick/Count))
board.cache_hierarchy.l1d-cache-0.LoadLockedReq.avgMissLatency::total 56666.666667                       # average LoadLockedReq miss latency ((Tick/Count))
board.cache_hierarchy.l1d-cache-0.LoadLockedReq.mshrMisses::processor.cores.core.data            3                       # number of LoadLockedReq MSHR misses (Count)
board.cache_hierarchy.l1d-cache-0.LoadLockedReq.mshrMisses::total            3                       # number of LoadLockedReq MSHR misses (Count)
board.cache_hierarchy.l1d-cache-0.LoadLockedReq.mshrMissLatency::processor.cores.core.data       167000                       # number of LoadLockedReq MSHR miss ticks (Tick)
board.cache_hierarchy.l1d-cache-0.LoadLockedReq.mshrMissLatency::total       167000                       # number of LoadLockedReq MSHR miss ticks (Tick)
board.cache_hierarchy.l1d-cache-0.LoadLockedReq.mshrMissRate::processor.cores.core.data     0.081081                       # mshr miss rate for LoadLockedReq accesses (Ratio)
board.cache_hierarchy.l1d-cache-0.LoadLockedReq.mshrMissRate::total     0.081081                       # mshr miss rate for LoadLockedReq accesses (Ratio)
board.cache_hierarchy.l1d-cache-0.LoadLockedReq.avgMshrMissLatency::processor.cores.core.data 55666.666667                       # average LoadLockedReq mshr miss latency ((Tick/Count))
board.cache_hierarchy.l1d-cache-0.LoadLockedReq.avgMshrMissLatency::total 55666.666667                       # average LoadLockedReq mshr miss latency ((Tick/Count))
board.cache_hierarchy.l1d-cache-0.ReadReq.hits::processor.cores.core.data       169863                       # number of ReadReq hits (Count)
board.cache_hierarchy.l1d-cache-0.ReadReq.hits::total       169863                       # number of ReadReq hits (Count)
board.cache_hierarchy.l1d-cache-0.ReadReq.misses::processor.cores.core.data         1233                       # number of ReadReq misses (Count)
board.cache_hierarchy.l1d-cache-0.ReadReq.misses::total         1233                       # number of ReadReq misses (Count)
board.cache_hierarchy.l1d-cache-0.ReadReq.missLatency::processor.cores.core.data     24654000                       # number of ReadReq miss ticks (Tick)
board.cache_hierarchy.l1d-cache-0.ReadReq.missLatency::total     24654000                       # number of ReadReq miss ticks (Tick)
board.cache_hierarchy.l1d-cache-0.ReadReq.accesses::processor.cores.core.data       171096                       # number of ReadReq accesses(hits+misses) (Count)
board.cache_hierarchy.l1d-cache-0.ReadReq.accesses::total       171096                       # number of ReadReq accesses(hits+misses) (Count)
board.cache_hierarchy.l1d-cache-0.ReadReq.missRate::processor.cores.core.data     0.007206                       # miss rate for ReadReq accesses (Ratio)
board.cache_hierarchy.l1d-cache-0.ReadReq.missRate::total     0.007206                       # miss rate for ReadReq accesses (Ratio)
board.cache_hierarchy.l1d-cache-0.ReadReq.avgMissLatency::processor.cores.core.data 19995.133820                       # average ReadReq miss latency ((Tick/Count))
board.cache_hierarchy.l1d-cache-0.ReadReq.avgMissLatency::total 19995.133820                       # average ReadReq miss latency ((Tick/Count))
board.cache_hierarchy.l1d-cache-0.ReadReq.mshrMisses::processor.cores.core.data         1233                       # number of ReadReq MSHR misses (Count)
board.cache_hierarchy.l1d-cache-0.ReadReq.mshrMisses::total         1233                       # number of ReadReq MSHR misses (Count)
board.cache_hierarchy.l1d-cache-0.ReadReq.mshrMissLatency::processor.cores.core.data     23421000                       # number of ReadReq MSHR miss ticks (Tick)
board.cache_hierarchy.l1d-cache-0.ReadReq.mshrMissLatency::total     23421000                       # number of ReadReq MSHR miss ticks (Tick)
board.cache_hierarchy.l1d-cache-0.ReadReq.mshrMissRate::processor.cores.core.data     0.007206                       # mshr miss rate for ReadReq accesses (Ratio)
board.cache_hierarchy.l1d-cache-0.ReadReq.mshrMissRate::total     0.007206                       # mshr miss rate for ReadReq accesses (Ratio)
board.cache_hierarchy.l1d-cache-0.ReadReq.avgMshrMissLatency::processor.cores.core.data 18995.133820                       # average ReadReq mshr miss latency ((Tick/Count))
board.cache_hierarchy.l1d-cache-0.ReadReq.avgMshrMissLatency::total 18995.133820                       # average ReadReq mshr miss latency ((Tick/Count))
board.cache_hierarchy.l1d-cache-0.StoreCondReq.hits::processor.cores.core.data           37                       # number of StoreCondReq hits (Count)
board.cache_hierarchy.l1d-cache-0.StoreCondReq.hits::total           37                       # number of StoreCondReq hits (Count)
board.cache_hierarchy.l1d-cache-0.StoreCondReq.accesses::processor.cores.core.data           37                       # number of StoreCondReq accesses(hits+misses) (Count)
board.cache_hierarchy.l1d-cache-0.StoreCondReq.accesses::total           37                       # number of StoreCondReq accesses(hits+misses) (Count)
board.cache_hierarchy.l1d-cache-0.SwapReq.hits::processor.cores.core.data           47                       # number of SwapReq hits (Count)
board.cache_hierarchy.l1d-cache-0.SwapReq.hits::total           47                       # number of SwapReq hits (Count)
board.cache_hierarchy.l1d-cache-0.SwapReq.misses::processor.cores.core.data            1                       # number of SwapReq misses (Count)
board.cache_hierarchy.l1d-cache-0.SwapReq.misses::total            1                       # number of SwapReq misses (Count)
board.cache_hierarchy.l1d-cache-0.SwapReq.missLatency::processor.cores.core.data        64000                       # number of SwapReq miss ticks (Tick)
board.cache_hierarchy.l1d-cache-0.SwapReq.missLatency::total        64000                       # number of SwapReq miss ticks (Tick)
board.cache_hierarchy.l1d-cache-0.SwapReq.accesses::processor.cores.core.data           48                       # number of SwapReq accesses(hits+misses) (Count)
board.cache_hierarchy.l1d-cache-0.SwapReq.accesses::total           48                       # number of SwapReq accesses(hits+misses) (Count)
board.cache_hierarchy.l1d-cache-0.SwapReq.missRate::processor.cores.core.data     0.020833                       # miss rate for SwapReq accesses (Ratio)
board.cache_hierarchy.l1d-cache-0.SwapReq.missRate::total     0.020833                       # miss rate for SwapReq accesses (Ratio)
board.cache_hierarchy.l1d-cache-0.SwapReq.avgMissLatency::processor.cores.core.data        64000                       # average SwapReq miss latency ((Tick/Count))
board.cache_hierarchy.l1d-cache-0.SwapReq.avgMissLatency::total        64000                       # average SwapReq miss latency ((Tick/Count))
board.cache_hierarchy.l1d-cache-0.SwapReq.mshrMisses::processor.cores.core.data            1                       # number of SwapReq MSHR misses (Count)
board.cache_hierarchy.l1d-cache-0.SwapReq.mshrMisses::total            1                       # number of SwapReq MSHR misses (Count)
board.cache_hierarchy.l1d-cache-0.SwapReq.mshrMissLatency::processor.cores.core.data        63000                       # number of SwapReq MSHR miss ticks (Tick)
board.cache_hierarchy.l1d-cache-0.SwapReq.mshrMissLatency::total        63000                       # number of SwapReq MSHR miss ticks (Tick)
board.cache_hierarchy.l1d-cache-0.SwapReq.mshrMissRate::processor.cores.core.data     0.020833                       # mshr miss rate for SwapReq accesses (Ratio)
board.cache_hierarchy.l1d-cache-0.SwapReq.mshrMissRate::total     0.020833                       # mshr miss rate for SwapReq accesses (Ratio)
board.cache_hierarchy.l1d-cache-0.SwapReq.avgMshrMissLatency::processor.cores.core.data        63000                       # average SwapReq mshr miss latency ((Tick/Count))
board.cache_hierarchy.l1d-cache-0.SwapReq.avgMshrMissLatency::total        63000                       # average SwapReq mshr miss latency ((Tick/Count))
board.cache_hierarchy.l1d-cache-0.WriteReq.hits::processor.cores.core.data        95853                       # number of WriteReq hits (Count)
board.cache_hierarchy.l1d-cache-0.WriteReq.hits::total        95853                       # number of WriteReq hits (Count)
board.cache_hierarchy.l1d-cache-0.WriteReq.misses::processor.cores.core.data          466                       # number of WriteReq misses (Count)
board.cache_hierarchy.l1d-cache-0.WriteReq.misses::total          466                       # number of WriteReq misses (Count)
board.cache_hierarchy.l1d-cache-0.WriteReq.missLatency::processor.cores.core.data     11362000                       # number of WriteReq miss ticks (Tick)
board.cache_hierarchy.l1d-cache-0.WriteReq.missLatency::total     11362000                       # number of WriteReq miss ticks (Tick)
board.cache_hierarchy.l1d-cache-0.WriteReq.accesses::processor.cores.core.data        96319                       # number of WriteReq accesses(hits+misses) (Count)
board.cache_hierarchy.l1d-cache-0.WriteReq.accesses::total        96319                       # number of WriteReq accesses(hits+misses) (Count)
board.cache_hierarchy.l1d-cache-0.WriteReq.missRate::processor.cores.core.data     0.004838                       # miss rate for WriteReq accesses (Ratio)
board.cache_hierarchy.l1d-cache-0.WriteReq.missRate::total     0.004838                       # miss rate for WriteReq accesses (Ratio)
board.cache_hierarchy.l1d-cache-0.WriteReq.avgMissLatency::processor.cores.core.data 24381.974249                       # average WriteReq miss latency ((Tick/Count))
board.cache_hierarchy.l1d-cache-0.WriteReq.avgMissLatency::total 24381.974249                       # average WriteReq miss latency ((Tick/Count))
board.cache_hierarchy.l1d-cache-0.WriteReq.mshrMisses::processor.cores.core.data          466                       # number of WriteReq MSHR misses (Count)
board.cache_hierarchy.l1d-cache-0.WriteReq.mshrMisses::total          466                       # number of WriteReq MSHR misses (Count)
board.cache_hierarchy.l1d-cache-0.WriteReq.mshrMissLatency::processor.cores.core.data     10896000                       # number of WriteReq MSHR miss ticks (Tick)
board.cache_hierarchy.l1d-cache-0.WriteReq.mshrMissLatency::total     10896000                       # number of WriteReq MSHR miss ticks (Tick)
board.cache_hierarchy.l1d-cache-0.WriteReq.mshrMissRate::processor.cores.core.data     0.004838                       # mshr miss rate for WriteReq accesses (Ratio)
board.cache_hierarchy.l1d-cache-0.WriteReq.mshrMissRate::total     0.004838                       # mshr miss rate for WriteReq accesses (Ratio)
board.cache_hierarchy.l1d-cache-0.WriteReq.avgMshrMissLatency::processor.cores.core.data 23381.974249                       # average WriteReq mshr miss latency ((Tick/Count))
board.cache_hierarchy.l1d-cache-0.WriteReq.avgMshrMissLatency::total 23381.974249                       # average WriteReq mshr miss latency ((Tick/Count))
board.cache_hierarchy.l1d-cache-0.power_state.pwrStateResidencyTicks::UNDEFINED   1215931000                       # Cumulative time (in ticks) in various power states (Tick)
board.cache_hierarchy.l1d-cache-0.prefetcher.demandMshrMisses         1699                       # demands not covered by prefetchs (Count)
board.cache_hierarchy.l1d-cache-0.prefetcher.pfIssued        27724                       # number of hwpf issued (Count)
board.cache_hierarchy.l1d-cache-0.prefetcher.pfUnused           83                       # number of HardPF blocks evicted w/o reference (Count)
board.cache_hierarchy.l1d-cache-0.prefetcher.pfUseful         7107                       # number of useful prefetch (Count)
board.cache_hierarchy.l1d-cache-0.prefetcher.pfUsefulButMiss            0                       # number of hit on prefetch but cache block is not in an usable state (Count)
board.cache_hierarchy.l1d-cache-0.prefetcher.accuracy     0.256348                       # accuracy of the prefetcher (Count)
board.cache_hierarchy.l1d-cache-0.prefetcher.coverage     0.807063                       # coverage brought by this prefetcher (Count)
board.cache_hierarchy.l1d-cache-0.prefetcher.pfHitInCache        20530                       # number of prefetches hitting in cache (Count)
board.cache_hierarchy.l1d-cache-0.prefetcher.pfHitInMSHR            0                       # number of prefetches hitting in a MSHR (Count)
board.cache_hierarchy.l1d-cache-0.prefetcher.pfHitInWB            0                       # number of prefetches hit in the Write Buffer (Count)
board.cache_hierarchy.l1d-cache-0.prefetcher.pfLate        20530                       # number of late prefetches (hitting in cache, MSHR or WB) (Count)
board.cache_hierarchy.l1d-cache-0.prefetcher.pfIdentified        27724                       # number of prefetch candidates identified (Count)
board.cache_hierarchy.l1d-cache-0.prefetcher.pfBufferHit            0                       # number of redundant prefetches already in prefetch queue (Count)
board.cache_hierarchy.l1d-cache-0.prefetcher.pfInCache            0                       # number of redundant prefetches already in cache/mshr dropped (Count)
board.cache_hierarchy.l1d-cache-0.prefetcher.pfRemovedDemand            0                       # number of prefetches dropped due to a demand for the same address (Count)
board.cache_hierarchy.l1d-cache-0.prefetcher.pfRemovedFull            0                       # number of prefetches dropped due to prefetch queue size (Count)
board.cache_hierarchy.l1d-cache-0.prefetcher.pfSpanPage         1116                       # number of prefetches that crossed the page (Count)
board.cache_hierarchy.l1d-cache-0.prefetcher.pfUsefulSpanPage         1116                       # number of prefetches that is useful and crossed the page (Count)
board.cache_hierarchy.l1d-cache-0.prefetcher.power_state.pwrStateResidencyTicks::UNDEFINED   1215931000                       # Cumulative time (in ticks) in various power states (Tick)
board.cache_hierarchy.l1d-cache-0.tags.tagsInUse   251.838048                       # Average ticks per tags in use ((Tick/Count))
board.cache_hierarchy.l1d-cache-0.tags.totalRefs       274731                       # Total number of references to valid blocks. (Count)
board.cache_hierarchy.l1d-cache-0.tags.sampledRefs         8897                       # Sample count of references to valid blocks. (Count)
board.cache_hierarchy.l1d-cache-0.tags.avgRefs    30.879060                       # Average number of references to valid blocks. ((Count/Count))
board.cache_hierarchy.l1d-cache-0.tags.warmupTick       233000                       # The tick when the warmup percentage was hit. (Tick)
board.cache_hierarchy.l1d-cache-0.tags.occupancies::cache_hierarchy.l1d-cache-0.prefetcher   208.821760                       # Average occupied blocks per tick, per requestor ((Count/Tick))
board.cache_hierarchy.l1d-cache-0.tags.occupancies::processor.cores.core.data    43.016288                       # Average occupied blocks per tick, per requestor ((Count/Tick))
board.cache_hierarchy.l1d-cache-0.tags.avgOccs::cache_hierarchy.l1d-cache-0.prefetcher     0.815710                       # Average percentage of cache occupancy ((Ratio/Tick))
board.cache_hierarchy.l1d-cache-0.tags.avgOccs::processor.cores.core.data     0.168032                       # Average percentage of cache occupancy ((Ratio/Tick))
board.cache_hierarchy.l1d-cache-0.tags.avgOccs::total     0.983742                       # Average percentage of cache occupancy ((Ratio/Tick))
board.cache_hierarchy.l1d-cache-0.tags.occupanciesTaskId::1022          175                       # Occupied blocks per task id (Count)
board.cache_hierarchy.l1d-cache-0.tags.occupanciesTaskId::1024           81                       # Occupied blocks per task id (Count)
board.cache_hierarchy.l1d-cache-0.tags.ageTaskId_1022::0            4                       # Occupied blocks per task id, per block age (Count)
board.cache_hierarchy.l1d-cache-0.tags.ageTaskId_1022::1          143                       # Occupied blocks per task id, per block age (Count)
board.cache_hierarchy.l1d-cache-0.tags.ageTaskId_1022::3           28                       # Occupied blocks per task id, per block age (Count)
board.cache_hierarchy.l1d-cache-0.tags.ageTaskId_1024::0           75                       # Occupied blocks per task id, per block age (Count)
board.cache_hierarchy.l1d-cache-0.tags.ageTaskId_1024::1            1                       # Occupied blocks per task id, per block age (Count)
board.cache_hierarchy.l1d-cache-0.tags.ageTaskId_1024::3            5                       # Occupied blocks per task id, per block age (Count)
board.cache_hierarchy.l1d-cache-0.tags.ratioOccsTaskId::1022     0.683594                       # Ratio of occupied blocks and all blocks, per task id (Ratio)
board.cache_hierarchy.l1d-cache-0.tags.ratioOccsTaskId::1024     0.316406                       # Ratio of occupied blocks and all blocks, per task id (Ratio)
board.cache_hierarchy.l1d-cache-0.tags.tagAccesses      2149193                       # Number of tag accesses (Count)
board.cache_hierarchy.l1d-cache-0.tags.dataAccesses      2149193                       # Number of data accesses (Count)
board.cache_hierarchy.l1d-cache-0.tags.power_state.pwrStateResidencyTicks::UNDEFINED   1215931000                       # Cumulative time (in ticks) in various power states (Tick)
board.cache_hierarchy.l1i-cache-0.demandHits::processor.cores.core.inst       889430                       # number of demand (read+write) hits (Count)
board.cache_hierarchy.l1i-cache-0.demandHits::total       889430                       # number of demand (read+write) hits (Count)
board.cache_hierarchy.l1i-cache-0.overallHits::processor.cores.core.inst       889430                       # number of overall hits (Count)
board.cache_hierarchy.l1i-cache-0.overallHits::total       889430                       # number of overall hits (Count)
board.cache_hierarchy.l1i-cache-0.demandMisses::processor.cores.core.inst          334                       # number of demand (read+write) misses (Count)
board.cache_hierarchy.l1i-cache-0.demandMisses::total          334                       # number of demand (read+write) misses (Count)
board.cache_hierarchy.l1i-cache-0.overallMisses::processor.cores.core.inst          334                       # number of overall misses (Count)
board.cache_hierarchy.l1i-cache-0.overallMisses::total          334                       # number of overall misses (Count)
board.cache_hierarchy.l1i-cache-0.demandMissLatency::processor.cores.core.inst     24003000                       # number of demand (read+write) miss ticks (Tick)
board.cache_hierarchy.l1i-cache-0.demandMissLatency::total     24003000                       # number of demand (read+write) miss ticks (Tick)
board.cache_hierarchy.l1i-cache-0.overallMissLatency::processor.cores.core.inst     24003000                       # number of overall miss ticks (Tick)
board.cache_hierarchy.l1i-cache-0.overallMissLatency::total     24003000                       # number of overall miss ticks (Tick)
board.cache_hierarchy.l1i-cache-0.demandAccesses::processor.cores.core.inst       889764                       # number of demand (read+write) accesses (Count)
board.cache_hierarchy.l1i-cache-0.demandAccesses::total       889764                       # number of demand (read+write) accesses (Count)
board.cache_hierarchy.l1i-cache-0.overallAccesses::processor.cores.core.inst       889764                       # number of overall (read+write) accesses (Count)
board.cache_hierarchy.l1i-cache-0.overallAccesses::total       889764                       # number of overall (read+write) accesses (Count)
board.cache_hierarchy.l1i-cache-0.demandMissRate::processor.cores.core.inst     0.000375                       # miss rate for demand accesses (Ratio)
board.cache_hierarchy.l1i-cache-0.demandMissRate::total     0.000375                       # miss rate for demand accesses (Ratio)
board.cache_hierarchy.l1i-cache-0.overallMissRate::processor.cores.core.inst     0.000375                       # miss rate for overall accesses (Ratio)
board.cache_hierarchy.l1i-cache-0.overallMissRate::total     0.000375                       # miss rate for overall accesses (Ratio)
board.cache_hierarchy.l1i-cache-0.demandAvgMissLatency::processor.cores.core.inst 71865.269461                       # average overall miss latency in ticks ((Tick/Count))
board.cache_hierarchy.l1i-cache-0.demandAvgMissLatency::total 71865.269461                       # average overall miss latency in ticks ((Tick/Count))
board.cache_hierarchy.l1i-cache-0.overallAvgMissLatency::processor.cores.core.inst 71865.269461                       # average overall miss latency ((Tick/Count))
board.cache_hierarchy.l1i-cache-0.overallAvgMissLatency::total 71865.269461                       # average overall miss latency ((Tick/Count))
board.cache_hierarchy.l1i-cache-0.blockedCycles::no_mshrs            0                       # number of cycles access was blocked (Cycle)
board.cache_hierarchy.l1i-cache-0.blockedCycles::no_targets            0                       # number of cycles access was blocked (Cycle)
board.cache_hierarchy.l1i-cache-0.blockedCauses::no_mshrs            0                       # number of times access was blocked (Count)
board.cache_hierarchy.l1i-cache-0.blockedCauses::no_targets            0                       # number of times access was blocked (Count)
board.cache_hierarchy.l1i-cache-0.avgBlocked::no_mshrs          nan                       # average number of cycles each access was blocked ((Cycle/Count))
board.cache_hierarchy.l1i-cache-0.avgBlocked::no_targets          nan                       # average number of cycles each access was blocked ((Cycle/Count))
board.cache_hierarchy.l1i-cache-0.writebacks::writebacks           82                       # number of writebacks (Count)
board.cache_hierarchy.l1i-cache-0.writebacks::total           82                       # number of writebacks (Count)
board.cache_hierarchy.l1i-cache-0.demandMshrMisses::processor.cores.core.inst          334                       # number of demand (read+write) MSHR misses (Count)
board.cache_hierarchy.l1i-cache-0.demandMshrMisses::total          334                       # number of demand (read+write) MSHR misses (Count)
board.cache_hierarchy.l1i-cache-0.overallMshrMisses::processor.cores.core.inst          334                       # number of overall MSHR misses (Count)
board.cache_hierarchy.l1i-cache-0.overallMshrMisses::total          334                       # number of overall MSHR misses (Count)
board.cache_hierarchy.l1i-cache-0.demandMshrMissLatency::processor.cores.core.inst     23669000                       # number of demand (read+write) MSHR miss ticks (Tick)
board.cache_hierarchy.l1i-cache-0.demandMshrMissLatency::total     23669000                       # number of demand (read+write) MSHR miss ticks (Tick)
board.cache_hierarchy.l1i-cache-0.overallMshrMissLatency::processor.cores.core.inst     23669000                       # number of overall MSHR miss ticks (Tick)
board.cache_hierarchy.l1i-cache-0.overallMshrMissLatency::total     23669000                       # number of overall MSHR miss ticks (Tick)
board.cache_hierarchy.l1i-cache-0.demandMshrMissRate::processor.cores.core.inst     0.000375                       # mshr miss ratio for demand accesses (Ratio)
board.cache_hierarchy.l1i-cache-0.demandMshrMissRate::total     0.000375                       # mshr miss ratio for demand accesses (Ratio)
board.cache_hierarchy.l1i-cache-0.overallMshrMissRate::processor.cores.core.inst     0.000375                       # mshr miss ratio for overall accesses (Ratio)
board.cache_hierarchy.l1i-cache-0.overallMshrMissRate::total     0.000375                       # mshr miss ratio for overall accesses (Ratio)
board.cache_hierarchy.l1i-cache-0.demandAvgMshrMissLatency::processor.cores.core.inst 70865.269461                       # average overall mshr miss latency ((Tick/Count))
board.cache_hierarchy.l1i-cache-0.demandAvgMshrMissLatency::total 70865.269461                       # average overall mshr miss latency ((Tick/Count))
board.cache_hierarchy.l1i-cache-0.overallAvgMshrMissLatency::processor.cores.core.inst 70865.269461                       # average overall mshr miss latency ((Tick/Count))
board.cache_hierarchy.l1i-cache-0.overallAvgMshrMissLatency::total 70865.269461                       # average overall mshr miss latency ((Tick/Count))
board.cache_hierarchy.l1i-cache-0.replacements           82                       # number of replacements (Count)
board.cache_hierarchy.l1i-cache-0.ReadReq.hits::processor.cores.core.inst       889430                       # number of ReadReq hits (Count)
board.cache_hierarchy.l1i-cache-0.ReadReq.hits::total       889430                       # number of ReadReq hits (Count)
board.cache_hierarchy.l1i-cache-0.ReadReq.misses::processor.cores.core.inst          334                       # number of ReadReq misses (Count)
board.cache_hierarchy.l1i-cache-0.ReadReq.misses::total          334                       # number of ReadReq misses (Count)
board.cache_hierarchy.l1i-cache-0.ReadReq.missLatency::processor.cores.core.inst     24003000                       # number of ReadReq miss ticks (Tick)
board.cache_hierarchy.l1i-cache-0.ReadReq.missLatency::total     24003000                       # number of ReadReq miss ticks (Tick)
board.cache_hierarchy.l1i-cache-0.ReadReq.accesses::processor.cores.core.inst       889764                       # number of ReadReq accesses(hits+misses) (Count)
board.cache_hierarchy.l1i-cache-0.ReadReq.accesses::total       889764                       # number of ReadReq accesses(hits+misses) (Count)
board.cache_hierarchy.l1i-cache-0.ReadReq.missRate::processor.cores.core.inst     0.000375                       # miss rate for ReadReq accesses (Ratio)
board.cache_hierarchy.l1i-cache-0.ReadReq.missRate::total     0.000375                       # miss rate for ReadReq accesses (Ratio)
board.cache_hierarchy.l1i-cache-0.ReadReq.avgMissLatency::processor.cores.core.inst 71865.269461                       # average ReadReq miss latency ((Tick/Count))
board.cache_hierarchy.l1i-cache-0.ReadReq.avgMissLatency::total 71865.269461                       # average ReadReq miss latency ((Tick/Count))
board.cache_hierarchy.l1i-cache-0.ReadReq.mshrMisses::processor.cores.core.inst          334                       # number of ReadReq MSHR misses (Count)
board.cache_hierarchy.l1i-cache-0.ReadReq.mshrMisses::total          334                       # number of ReadReq MSHR misses (Count)
board.cache_hierarchy.l1i-cache-0.ReadReq.mshrMissLatency::processor.cores.core.inst     23669000                       # number of ReadReq MSHR miss ticks (Tick)
board.cache_hierarchy.l1i-cache-0.ReadReq.mshrMissLatency::total     23669000                       # number of ReadReq MSHR miss ticks (Tick)
board.cache_hierarchy.l1i-cache-0.ReadReq.mshrMissRate::processor.cores.core.inst     0.000375                       # mshr miss rate for ReadReq accesses (Ratio)
board.cache_hierarchy.l1i-cache-0.ReadReq.mshrMissRate::total     0.000375                       # mshr miss rate for ReadReq accesses (Ratio)
board.cache_hierarchy.l1i-cache-0.ReadReq.avgMshrMissLatency::processor.cores.core.inst 70865.269461                       # average ReadReq mshr miss latency ((Tick/Count))
board.cache_hierarchy.l1i-cache-0.ReadReq.avgMshrMissLatency::total 70865.269461                       # average ReadReq mshr miss latency ((Tick/Count))
board.cache_hierarchy.l1i-cache-0.power_state.pwrStateResidencyTicks::UNDEFINED   1215931000                       # Cumulative time (in ticks) in various power states (Tick)
board.cache_hierarchy.l1i-cache-0.prefetcher.demandMshrMisses          334                       # demands not covered by prefetchs (Count)
board.cache_hierarchy.l1i-cache-0.prefetcher.pfIssued            0                       # number of hwpf issued (Count)
board.cache_hierarchy.l1i-cache-0.prefetcher.pfUseful            0                       # number of useful prefetch (Count)
board.cache_hierarchy.l1i-cache-0.prefetcher.pfUsefulButMiss            0                       # number of hit on prefetch but cache block is not in an usable state (Count)
board.cache_hierarchy.l1i-cache-0.prefetcher.accuracy          nan                       # accuracy of the prefetcher (Count)
board.cache_hierarchy.l1i-cache-0.prefetcher.coverage            0                       # coverage brought by this prefetcher (Count)
board.cache_hierarchy.l1i-cache-0.prefetcher.pfHitInCache            0                       # number of prefetches hitting in cache (Count)
board.cache_hierarchy.l1i-cache-0.prefetcher.pfHitInMSHR            0                       # number of prefetches hitting in a MSHR (Count)
board.cache_hierarchy.l1i-cache-0.prefetcher.pfHitInWB            0                       # number of prefetches hit in the Write Buffer (Count)
board.cache_hierarchy.l1i-cache-0.prefetcher.pfLate            0                       # number of late prefetches (hitting in cache, MSHR or WB) (Count)
board.cache_hierarchy.l1i-cache-0.prefetcher.pfIdentified            0                       # number of prefetch candidates identified (Count)
board.cache_hierarchy.l1i-cache-0.prefetcher.pfBufferHit            0                       # number of redundant prefetches already in prefetch queue (Count)
board.cache_hierarchy.l1i-cache-0.prefetcher.pfInCache            0                       # number of redundant prefetches already in cache/mshr dropped (Count)
board.cache_hierarchy.l1i-cache-0.prefetcher.pfRemovedDemand            0                       # number of prefetches dropped due to a demand for the same address (Count)
board.cache_hierarchy.l1i-cache-0.prefetcher.pfRemovedFull            0                       # number of prefetches dropped due to prefetch queue size (Count)
board.cache_hierarchy.l1i-cache-0.prefetcher.pfSpanPage            0                       # number of prefetches that crossed the page (Count)
board.cache_hierarchy.l1i-cache-0.prefetcher.pfUsefulSpanPage            0                       # number of prefetches that is useful and crossed the page (Count)
board.cache_hierarchy.l1i-cache-0.prefetcher.power_state.pwrStateResidencyTicks::UNDEFINED   1215931000                       # Cumulative time (in ticks) in various power states (Tick)
board.cache_hierarchy.l1i-cache-0.tags.tagsInUse   238.562909                       # Average ticks per tags in use ((Tick/Count))
board.cache_hierarchy.l1i-cache-0.tags.totalRefs       889764                       # Total number of references to valid blocks. (Count)
board.cache_hierarchy.l1i-cache-0.tags.sampledRefs          334                       # Sample count of references to valid blocks. (Count)
board.cache_hierarchy.l1i-cache-0.tags.avgRefs  2663.964072                       # Average number of references to valid blocks. ((Count/Count))
board.cache_hierarchy.l1i-cache-0.tags.warmupTick        79000                       # The tick when the warmup percentage was hit. (Tick)
board.cache_hierarchy.l1i-cache-0.tags.occupancies::processor.cores.core.inst   238.562909                       # Average occupied blocks per tick, per requestor ((Count/Tick))
board.cache_hierarchy.l1i-cache-0.tags.avgOccs::processor.cores.core.inst     0.931886                       # Average percentage of cache occupancy ((Ratio/Tick))
board.cache_hierarchy.l1i-cache-0.tags.avgOccs::total     0.931886                       # Average percentage of cache occupancy ((Ratio/Tick))
board.cache_hierarchy.l1i-cache-0.tags.occupanciesTaskId::1024          252                       # Occupied blocks per task id (Count)
board.cache_hierarchy.l1i-cache-0.tags.ageTaskId_1024::0           46                       # Occupied blocks per task id, per block age (Count)
board.cache_hierarchy.l1i-cache-0.tags.ageTaskId_1024::3          206                       # Occupied blocks per task id, per block age (Count)
board.cache_hierarchy.l1i-cache-0.tags.ratioOccsTaskId::1024     0.984375                       # Ratio of occupied blocks and all blocks, per task id (Ratio)
board.cache_hierarchy.l1i-cache-0.tags.tagAccesses      7118446                       # Number of tag accesses (Count)
board.cache_hierarchy.l1i-cache-0.tags.dataAccesses      7118446                       # Number of data accesses (Count)
board.cache_hierarchy.l1i-cache-0.tags.power_state.pwrStateResidencyTicks::UNDEFINED   1215931000                       # Cumulative time (in ticks) in various power states (Tick)
board.cache_hierarchy.l2-cache-0.demandHits::cache_hierarchy.l1d-cache-0.prefetcher         7154                       # number of demand (read+write) hits (Count)
board.cache_hierarchy.l2-cache-0.demandHits::processor.cores.core.data         1496                       # number of demand (read+write) hits (Count)
board.cache_hierarchy.l2-cache-0.demandHits::total         8650                       # number of demand (read+write) hits (Count)
board.cache_hierarchy.l2-cache-0.overallHits::cache_hierarchy.l1d-cache-0.prefetcher         7154                       # number of overall hits (Count)
board.cache_hierarchy.l2-cache-0.overallHits::processor.cores.core.data         1496                       # number of overall hits (Count)
board.cache_hierarchy.l2-cache-0.overallHits::total         8650                       # number of overall hits (Count)
board.cache_hierarchy.l2-cache-0.demandMisses::cache_hierarchy.l1d-cache-0.prefetcher           40                       # number of demand (read+write) misses (Count)
board.cache_hierarchy.l2-cache-0.demandMisses::processor.cores.core.inst          334                       # number of demand (read+write) misses (Count)
board.cache_hierarchy.l2-cache-0.demandMisses::processor.cores.core.data          207                       # number of demand (read+write) misses (Count)
board.cache_hierarchy.l2-cache-0.demandMisses::total          581                       # number of demand (read+write) misses (Count)
board.cache_hierarchy.l2-cache-0.overallMisses::cache_hierarchy.l1d-cache-0.prefetcher           40                       # number of overall misses (Count)
board.cache_hierarchy.l2-cache-0.overallMisses::processor.cores.core.inst          334                       # number of overall misses (Count)
board.cache_hierarchy.l2-cache-0.overallMisses::processor.cores.core.data          207                       # number of overall misses (Count)
board.cache_hierarchy.l2-cache-0.overallMisses::total          581                       # number of overall misses (Count)
board.cache_hierarchy.l2-cache-0.demandMissLatency::cache_hierarchy.l1d-cache-0.prefetcher      2818000                       # number of demand (read+write) miss ticks (Tick)
board.cache_hierarchy.l2-cache-0.demandMissLatency::processor.cores.core.inst     22995000                       # number of demand (read+write) miss ticks (Tick)
board.cache_hierarchy.l2-cache-0.demandMissLatency::processor.cores.core.data     14675000                       # number of demand (read+write) miss ticks (Tick)
board.cache_hierarchy.l2-cache-0.demandMissLatency::total     40488000                       # number of demand (read+write) miss ticks (Tick)
board.cache_hierarchy.l2-cache-0.overallMissLatency::cache_hierarchy.l1d-cache-0.prefetcher      2818000                       # number of overall miss ticks (Tick)
board.cache_hierarchy.l2-cache-0.overallMissLatency::processor.cores.core.inst     22995000                       # number of overall miss ticks (Tick)
board.cache_hierarchy.l2-cache-0.overallMissLatency::processor.cores.core.data     14675000                       # number of overall miss ticks (Tick)
board.cache_hierarchy.l2-cache-0.overallMissLatency::total     40488000                       # number of overall miss ticks (Tick)
board.cache_hierarchy.l2-cache-0.demandAccesses::cache_hierarchy.l1d-cache-0.prefetcher         7194                       # number of demand (read+write) accesses (Count)
board.cache_hierarchy.l2-cache-0.demandAccesses::processor.cores.core.inst          334                       # number of demand (read+write) accesses (Count)
board.cache_hierarchy.l2-cache-0.demandAccesses::processor.cores.core.data         1703                       # number of demand (read+write) accesses (Count)
board.cache_hierarchy.l2-cache-0.demandAccesses::total         9231                       # number of demand (read+write) accesses (Count)
board.cache_hierarchy.l2-cache-0.overallAccesses::cache_hierarchy.l1d-cache-0.prefetcher         7194                       # number of overall (read+write) accesses (Count)
board.cache_hierarchy.l2-cache-0.overallAccesses::processor.cores.core.inst          334                       # number of overall (read+write) accesses (Count)
board.cache_hierarchy.l2-cache-0.overallAccesses::processor.cores.core.data         1703                       # number of overall (read+write) accesses (Count)
board.cache_hierarchy.l2-cache-0.overallAccesses::total         9231                       # number of overall (read+write) accesses (Count)
board.cache_hierarchy.l2-cache-0.demandMissRate::cache_hierarchy.l1d-cache-0.prefetcher     0.005560                       # miss rate for demand accesses (Ratio)
board.cache_hierarchy.l2-cache-0.demandMissRate::processor.cores.core.inst            1                       # miss rate for demand accesses (Ratio)
board.cache_hierarchy.l2-cache-0.demandMissRate::processor.cores.core.data     0.121550                       # miss rate for demand accesses (Ratio)
board.cache_hierarchy.l2-cache-0.demandMissRate::total     0.062940                       # miss rate for demand accesses (Ratio)
board.cache_hierarchy.l2-cache-0.overallMissRate::cache_hierarchy.l1d-cache-0.prefetcher     0.005560                       # miss rate for overall accesses (Ratio)
board.cache_hierarchy.l2-cache-0.overallMissRate::processor.cores.core.inst            1                       # miss rate for overall accesses (Ratio)
board.cache_hierarchy.l2-cache-0.overallMissRate::processor.cores.core.data     0.121550                       # miss rate for overall accesses (Ratio)
board.cache_hierarchy.l2-cache-0.overallMissRate::total     0.062940                       # miss rate for overall accesses (Ratio)
board.cache_hierarchy.l2-cache-0.demandAvgMissLatency::cache_hierarchy.l1d-cache-0.prefetcher        70450                       # average overall miss latency in ticks ((Tick/Count))
board.cache_hierarchy.l2-cache-0.demandAvgMissLatency::processor.cores.core.inst 68847.305389                       # average overall miss latency in ticks ((Tick/Count))
board.cache_hierarchy.l2-cache-0.demandAvgMissLatency::processor.cores.core.data 70893.719807                       # average overall miss latency in ticks ((Tick/Count))
board.cache_hierarchy.l2-cache-0.demandAvgMissLatency::total 69686.746988                       # average overall miss latency in ticks ((Tick/Count))
board.cache_hierarchy.l2-cache-0.overallAvgMissLatency::cache_hierarchy.l1d-cache-0.prefetcher        70450                       # average overall miss latency ((Tick/Count))
board.cache_hierarchy.l2-cache-0.overallAvgMissLatency::processor.cores.core.inst 68847.305389                       # average overall miss latency ((Tick/Count))
board.cache_hierarchy.l2-cache-0.overallAvgMissLatency::processor.cores.core.data 70893.719807                       # average overall miss latency ((Tick/Count))
board.cache_hierarchy.l2-cache-0.overallAvgMissLatency::total 69686.746988                       # average overall miss latency ((Tick/Count))
board.cache_hierarchy.l2-cache-0.blockedCycles::no_mshrs            0                       # number of cycles access was blocked (Cycle)
board.cache_hierarchy.l2-cache-0.blockedCycles::no_targets            0                       # number of cycles access was blocked (Cycle)
board.cache_hierarchy.l2-cache-0.blockedCauses::no_mshrs            0                       # number of times access was blocked (Count)
board.cache_hierarchy.l2-cache-0.blockedCauses::no_targets            0                       # number of times access was blocked (Count)
board.cache_hierarchy.l2-cache-0.avgBlocked::no_mshrs          nan                       # average number of cycles each access was blocked ((Cycle/Count))
board.cache_hierarchy.l2-cache-0.avgBlocked::no_targets          nan                       # average number of cycles each access was blocked ((Cycle/Count))
board.cache_hierarchy.l2-cache-0.demandMshrHits::cache_hierarchy.l1d-cache-0.prefetcher           29                       # number of demand (read+write) MSHR hits (Count)
board.cache_hierarchy.l2-cache-0.demandMshrHits::total           29                       # number of demand (read+write) MSHR hits (Count)
board.cache_hierarchy.l2-cache-0.overallMshrHits::cache_hierarchy.l1d-cache-0.prefetcher           29                       # number of overall MSHR hits (Count)
board.cache_hierarchy.l2-cache-0.overallMshrHits::total           29                       # number of overall MSHR hits (Count)
board.cache_hierarchy.l2-cache-0.demandMshrMisses::cache_hierarchy.l1d-cache-0.prefetcher           11                       # number of demand (read+write) MSHR misses (Count)
board.cache_hierarchy.l2-cache-0.demandMshrMisses::processor.cores.core.inst          334                       # number of demand (read+write) MSHR misses (Count)
board.cache_hierarchy.l2-cache-0.demandMshrMisses::processor.cores.core.data          207                       # number of demand (read+write) MSHR misses (Count)
board.cache_hierarchy.l2-cache-0.demandMshrMisses::total          552                       # number of demand (read+write) MSHR misses (Count)
board.cache_hierarchy.l2-cache-0.overallMshrMisses::cache_hierarchy.l1d-cache-0.prefetcher           11                       # number of overall MSHR misses (Count)
board.cache_hierarchy.l2-cache-0.overallMshrMisses::cache_hierarchy.l2-cache-0.prefetcher          355                       # number of overall MSHR misses (Count)
board.cache_hierarchy.l2-cache-0.overallMshrMisses::processor.cores.core.inst          334                       # number of overall MSHR misses (Count)
board.cache_hierarchy.l2-cache-0.overallMshrMisses::processor.cores.core.data          207                       # number of overall MSHR misses (Count)
board.cache_hierarchy.l2-cache-0.overallMshrMisses::total          907                       # number of overall MSHR misses (Count)
board.cache_hierarchy.l2-cache-0.demandMshrMissLatency::cache_hierarchy.l1d-cache-0.prefetcher      1105000                       # number of demand (read+write) MSHR miss ticks (Tick)
board.cache_hierarchy.l2-cache-0.demandMshrMissLatency::processor.cores.core.inst     22661000                       # number of demand (read+write) MSHR miss ticks (Tick)
board.cache_hierarchy.l2-cache-0.demandMshrMissLatency::processor.cores.core.data     14468000                       # number of demand (read+write) MSHR miss ticks (Tick)
board.cache_hierarchy.l2-cache-0.demandMshrMissLatency::total     38234000                       # number of demand (read+write) MSHR miss ticks (Tick)
board.cache_hierarchy.l2-cache-0.overallMshrMissLatency::cache_hierarchy.l1d-cache-0.prefetcher      1105000                       # number of overall MSHR miss ticks (Tick)
board.cache_hierarchy.l2-cache-0.overallMshrMissLatency::cache_hierarchy.l2-cache-0.prefetcher     20739274                       # number of overall MSHR miss ticks (Tick)
board.cache_hierarchy.l2-cache-0.overallMshrMissLatency::processor.cores.core.inst     22661000                       # number of overall MSHR miss ticks (Tick)
board.cache_hierarchy.l2-cache-0.overallMshrMissLatency::processor.cores.core.data     14468000                       # number of overall MSHR miss ticks (Tick)
board.cache_hierarchy.l2-cache-0.overallMshrMissLatency::total     58973274                       # number of overall MSHR miss ticks (Tick)
board.cache_hierarchy.l2-cache-0.demandMshrMissRate::cache_hierarchy.l1d-cache-0.prefetcher     0.001529                       # mshr miss ratio for demand accesses (Ratio)
board.cache_hierarchy.l2-cache-0.demandMshrMissRate::processor.cores.core.inst            1                       # mshr miss ratio for demand accesses (Ratio)
board.cache_hierarchy.l2-cache-0.demandMshrMissRate::processor.cores.core.data     0.121550                       # mshr miss ratio for demand accesses (Ratio)
board.cache_hierarchy.l2-cache-0.demandMshrMissRate::total     0.059799                       # mshr miss ratio for demand accesses (Ratio)
board.cache_hierarchy.l2-cache-0.overallMshrMissRate::cache_hierarchy.l1d-cache-0.prefetcher     0.001529                       # mshr miss ratio for overall accesses (Ratio)
board.cache_hierarchy.l2-cache-0.overallMshrMissRate::cache_hierarchy.l2-cache-0.prefetcher          inf                       # mshr miss ratio for overall accesses (Ratio)
board.cache_hierarchy.l2-cache-0.overallMshrMissRate::processor.cores.core.inst            1                       # mshr miss ratio for overall accesses (Ratio)
board.cache_hierarchy.l2-cache-0.overallMshrMissRate::processor.cores.core.data     0.121550                       # mshr miss ratio for overall accesses (Ratio)
board.cache_hierarchy.l2-cache-0.overallMshrMissRate::total     0.098256                       # mshr miss ratio for overall accesses (Ratio)
board.cache_hierarchy.l2-cache-0.demandAvgMshrMissLatency::cache_hierarchy.l1d-cache-0.prefetcher 100454.545455                       # average overall mshr miss latency ((Tick/Count))
board.cache_hierarchy.l2-cache-0.demandAvgMshrMissLatency::processor.cores.core.inst 67847.305389                       # average overall mshr miss latency ((Tick/Count))
board.cache_hierarchy.l2-cache-0.demandAvgMshrMissLatency::processor.cores.core.data 69893.719807                       # average overall mshr miss latency ((Tick/Count))
board.cache_hierarchy.l2-cache-0.demandAvgMshrMissLatency::total 69264.492754                       # average overall mshr miss latency ((Tick/Count))
board.cache_hierarchy.l2-cache-0.overallAvgMshrMissLatency::cache_hierarchy.l1d-cache-0.prefetcher 100454.545455                       # average overall mshr miss latency ((Tick/Count))
board.cache_hierarchy.l2-cache-0.overallAvgMshrMissLatency::cache_hierarchy.l2-cache-0.prefetcher 58420.490141                       # average overall mshr miss latency ((Tick/Count))
board.cache_hierarchy.l2-cache-0.overallAvgMshrMissLatency::processor.cores.core.inst 67847.305389                       # average overall mshr miss latency ((Tick/Count))
board.cache_hierarchy.l2-cache-0.overallAvgMshrMissLatency::processor.cores.core.data 69893.719807                       # average overall mshr miss latency ((Tick/Count))
board.cache_hierarchy.l2-cache-0.overallAvgMshrMissLatency::total 65020.147740                       # average overall mshr miss latency ((Tick/Count))
board.cache_hierarchy.l2-cache-0.replacements            0                       # number of replacements (Count)
board.cache_hierarchy.l2-cache-0.HardPFReq.mshrMisses::cache_hierarchy.l2-cache-0.prefetcher          355                       # number of HardPFReq MSHR misses (Count)
board.cache_hierarchy.l2-cache-0.HardPFReq.mshrMisses::total          355                       # number of HardPFReq MSHR misses (Count)
board.cache_hierarchy.l2-cache-0.HardPFReq.mshrMissLatency::cache_hierarchy.l2-cache-0.prefetcher     20739274                       # number of HardPFReq MSHR miss ticks (Tick)
board.cache_hierarchy.l2-cache-0.HardPFReq.mshrMissLatency::total     20739274                       # number of HardPFReq MSHR miss ticks (Tick)
board.cache_hierarchy.l2-cache-0.HardPFReq.mshrMissRate::cache_hierarchy.l2-cache-0.prefetcher          inf                       # mshr miss rate for HardPFReq accesses (Ratio)
board.cache_hierarchy.l2-cache-0.HardPFReq.mshrMissRate::total          inf                       # mshr miss rate for HardPFReq accesses (Ratio)
board.cache_hierarchy.l2-cache-0.HardPFReq.avgMshrMissLatency::cache_hierarchy.l2-cache-0.prefetcher 58420.490141                       # average HardPFReq mshr miss latency ((Tick/Count))
board.cache_hierarchy.l2-cache-0.HardPFReq.avgMshrMissLatency::total 58420.490141                       # average HardPFReq mshr miss latency ((Tick/Count))
board.cache_hierarchy.l2-cache-0.ReadExReq.hits::processor.cores.core.data          382                       # number of ReadExReq hits (Count)
board.cache_hierarchy.l2-cache-0.ReadExReq.hits::total          382                       # number of ReadExReq hits (Count)
board.cache_hierarchy.l2-cache-0.ReadExReq.misses::processor.cores.core.data           85                       # number of ReadExReq misses (Count)
board.cache_hierarchy.l2-cache-0.ReadExReq.misses::total           85                       # number of ReadExReq misses (Count)
board.cache_hierarchy.l2-cache-0.ReadExReq.missLatency::processor.cores.core.data      5823000                       # number of ReadExReq miss ticks (Tick)
board.cache_hierarchy.l2-cache-0.ReadExReq.missLatency::total      5823000                       # number of ReadExReq miss ticks (Tick)
board.cache_hierarchy.l2-cache-0.ReadExReq.accesses::processor.cores.core.data          467                       # number of ReadExReq accesses(hits+misses) (Count)
board.cache_hierarchy.l2-cache-0.ReadExReq.accesses::total          467                       # number of ReadExReq accesses(hits+misses) (Count)
board.cache_hierarchy.l2-cache-0.ReadExReq.missRate::processor.cores.core.data     0.182013                       # miss rate for ReadExReq accesses (Ratio)
board.cache_hierarchy.l2-cache-0.ReadExReq.missRate::total     0.182013                       # miss rate for ReadExReq accesses (Ratio)
board.cache_hierarchy.l2-cache-0.ReadExReq.avgMissLatency::processor.cores.core.data 68505.882353                       # average ReadExReq miss latency ((Tick/Count))
board.cache_hierarchy.l2-cache-0.ReadExReq.avgMissLatency::total 68505.882353                       # average ReadExReq miss latency ((Tick/Count))
board.cache_hierarchy.l2-cache-0.ReadExReq.mshrMisses::processor.cores.core.data           85                       # number of ReadExReq MSHR misses (Count)
board.cache_hierarchy.l2-cache-0.ReadExReq.mshrMisses::total           85                       # number of ReadExReq MSHR misses (Count)
board.cache_hierarchy.l2-cache-0.ReadExReq.mshrMissLatency::processor.cores.core.data      5738000                       # number of ReadExReq MSHR miss ticks (Tick)
board.cache_hierarchy.l2-cache-0.ReadExReq.mshrMissLatency::total      5738000                       # number of ReadExReq MSHR miss ticks (Tick)
board.cache_hierarchy.l2-cache-0.ReadExReq.mshrMissRate::processor.cores.core.data     0.182013                       # mshr miss rate for ReadExReq accesses (Ratio)
board.cache_hierarchy.l2-cache-0.ReadExReq.mshrMissRate::total     0.182013                       # mshr miss rate for ReadExReq accesses (Ratio)
board.cache_hierarchy.l2-cache-0.ReadExReq.avgMshrMissLatency::processor.cores.core.data 67505.882353                       # average ReadExReq mshr miss latency ((Tick/Count))
board.cache_hierarchy.l2-cache-0.ReadExReq.avgMshrMissLatency::total 67505.882353                       # average ReadExReq mshr miss latency ((Tick/Count))
board.cache_hierarchy.l2-cache-0.ReadSharedReq.hits::cache_hierarchy.l1d-cache-0.prefetcher         7154                       # number of ReadSharedReq hits (Count)
board.cache_hierarchy.l2-cache-0.ReadSharedReq.hits::processor.cores.core.data         1114                       # number of ReadSharedReq hits (Count)
board.cache_hierarchy.l2-cache-0.ReadSharedReq.hits::total         8268                       # number of ReadSharedReq hits (Count)
board.cache_hierarchy.l2-cache-0.ReadSharedReq.misses::cache_hierarchy.l1d-cache-0.prefetcher           40                       # number of ReadSharedReq misses (Count)
board.cache_hierarchy.l2-cache-0.ReadSharedReq.misses::processor.cores.core.inst          334                       # number of ReadSharedReq misses (Count)
board.cache_hierarchy.l2-cache-0.ReadSharedReq.misses::processor.cores.core.data          122                       # number of ReadSharedReq misses (Count)
board.cache_hierarchy.l2-cache-0.ReadSharedReq.misses::total          496                       # number of ReadSharedReq misses (Count)
board.cache_hierarchy.l2-cache-0.ReadSharedReq.missLatency::cache_hierarchy.l1d-cache-0.prefetcher      2818000                       # number of ReadSharedReq miss ticks (Tick)
board.cache_hierarchy.l2-cache-0.ReadSharedReq.missLatency::processor.cores.core.inst     22995000                       # number of ReadSharedReq miss ticks (Tick)
board.cache_hierarchy.l2-cache-0.ReadSharedReq.missLatency::processor.cores.core.data      8852000                       # number of ReadSharedReq miss ticks (Tick)
board.cache_hierarchy.l2-cache-0.ReadSharedReq.missLatency::total     34665000                       # number of ReadSharedReq miss ticks (Tick)
board.cache_hierarchy.l2-cache-0.ReadSharedReq.accesses::cache_hierarchy.l1d-cache-0.prefetcher         7194                       # number of ReadSharedReq accesses(hits+misses) (Count)
board.cache_hierarchy.l2-cache-0.ReadSharedReq.accesses::processor.cores.core.inst          334                       # number of ReadSharedReq accesses(hits+misses) (Count)
board.cache_hierarchy.l2-cache-0.ReadSharedReq.accesses::processor.cores.core.data         1236                       # number of ReadSharedReq accesses(hits+misses) (Count)
board.cache_hierarchy.l2-cache-0.ReadSharedReq.accesses::total         8764                       # number of ReadSharedReq accesses(hits+misses) (Count)
board.cache_hierarchy.l2-cache-0.ReadSharedReq.missRate::cache_hierarchy.l1d-cache-0.prefetcher     0.005560                       # miss rate for ReadSharedReq accesses (Ratio)
board.cache_hierarchy.l2-cache-0.ReadSharedReq.missRate::processor.cores.core.inst            1                       # miss rate for ReadSharedReq accesses (Ratio)
board.cache_hierarchy.l2-cache-0.ReadSharedReq.missRate::processor.cores.core.data     0.098706                       # miss rate for ReadSharedReq accesses (Ratio)
board.cache_hierarchy.l2-cache-0.ReadSharedReq.missRate::total     0.056595                       # miss rate for ReadSharedReq accesses (Ratio)
board.cache_hierarchy.l2-cache-0.ReadSharedReq.avgMissLatency::cache_hierarchy.l1d-cache-0.prefetcher        70450                       # average ReadSharedReq miss latency ((Tick/Count))
board.cache_hierarchy.l2-cache-0.ReadSharedReq.avgMissLatency::processor.cores.core.inst 68847.305389                       # average ReadSharedReq miss latency ((Tick/Count))
board.cache_hierarchy.l2-cache-0.ReadSharedReq.avgMissLatency::processor.cores.core.data 72557.377049                       # average ReadSharedReq miss latency ((Tick/Count))
board.cache_hierarchy.l2-cache-0.ReadSharedReq.avgMissLatency::total 69889.112903                       # average ReadSharedReq miss latency ((Tick/Count))
board.cache_hierarchy.l2-cache-0.ReadSharedReq.mshrHits::cache_hierarchy.l1d-cache-0.prefetcher           29                       # number of ReadSharedReq MSHR hits (Count)
board.cache_hierarchy.l2-cache-0.ReadSharedReq.mshrHits::total           29                       # number of ReadSharedReq MSHR hits (Count)
board.cache_hierarchy.l2-cache-0.ReadSharedReq.mshrMisses::cache_hierarchy.l1d-cache-0.prefetcher           11                       # number of ReadSharedReq MSHR misses (Count)
board.cache_hierarchy.l2-cache-0.ReadSharedReq.mshrMisses::processor.cores.core.inst          334                       # number of ReadSharedReq MSHR misses (Count)
board.cache_hierarchy.l2-cache-0.ReadSharedReq.mshrMisses::processor.cores.core.data          122                       # number of ReadSharedReq MSHR misses (Count)
board.cache_hierarchy.l2-cache-0.ReadSharedReq.mshrMisses::total          467                       # number of ReadSharedReq MSHR misses (Count)
board.cache_hierarchy.l2-cache-0.ReadSharedReq.mshrMissLatency::cache_hierarchy.l1d-cache-0.prefetcher      1105000                       # number of ReadSharedReq MSHR miss ticks (Tick)
board.cache_hierarchy.l2-cache-0.ReadSharedReq.mshrMissLatency::processor.cores.core.inst     22661000                       # number of ReadSharedReq MSHR miss ticks (Tick)
board.cache_hierarchy.l2-cache-0.ReadSharedReq.mshrMissLatency::processor.cores.core.data      8730000                       # number of ReadSharedReq MSHR miss ticks (Tick)
board.cache_hierarchy.l2-cache-0.ReadSharedReq.mshrMissLatency::total     32496000                       # number of ReadSharedReq MSHR miss ticks (Tick)
board.cache_hierarchy.l2-cache-0.ReadSharedReq.mshrMissRate::cache_hierarchy.l1d-cache-0.prefetcher     0.001529                       # mshr miss rate for ReadSharedReq accesses (Ratio)
board.cache_hierarchy.l2-cache-0.ReadSharedReq.mshrMissRate::processor.cores.core.inst            1                       # mshr miss rate for ReadSharedReq accesses (Ratio)
board.cache_hierarchy.l2-cache-0.ReadSharedReq.mshrMissRate::processor.cores.core.data     0.098706                       # mshr miss rate for ReadSharedReq accesses (Ratio)
board.cache_hierarchy.l2-cache-0.ReadSharedReq.mshrMissRate::total     0.053286                       # mshr miss rate for ReadSharedReq accesses (Ratio)
board.cache_hierarchy.l2-cache-0.ReadSharedReq.avgMshrMissLatency::cache_hierarchy.l1d-cache-0.prefetcher 100454.545455                       # average ReadSharedReq mshr miss latency ((Tick/Count))
board.cache_hierarchy.l2-cache-0.ReadSharedReq.avgMshrMissLatency::processor.cores.core.inst 67847.305389                       # average ReadSharedReq mshr miss latency ((Tick/Count))
board.cache_hierarchy.l2-cache-0.ReadSharedReq.avgMshrMissLatency::processor.cores.core.data 71557.377049                       # average ReadSharedReq mshr miss latency ((Tick/Count))
board.cache_hierarchy.l2-cache-0.ReadSharedReq.avgMshrMissLatency::total 69584.582441                       # average ReadSharedReq mshr miss latency ((Tick/Count))
board.cache_hierarchy.l2-cache-0.WritebackClean.hits::writebacks           82                       # number of WritebackClean hits (Count)
board.cache_hierarchy.l2-cache-0.WritebackClean.hits::total           82                       # number of WritebackClean hits (Count)
board.cache_hierarchy.l2-cache-0.WritebackClean.accesses::writebacks           82                       # number of WritebackClean accesses(hits+misses) (Count)
board.cache_hierarchy.l2-cache-0.WritebackClean.accesses::total           82                       # number of WritebackClean accesses(hits+misses) (Count)
board.cache_hierarchy.l2-cache-0.WritebackDirty.hits::writebacks          765                       # number of WritebackDirty hits (Count)
board.cache_hierarchy.l2-cache-0.WritebackDirty.hits::total          765                       # number of WritebackDirty hits (Count)
board.cache_hierarchy.l2-cache-0.WritebackDirty.accesses::writebacks          765                       # number of WritebackDirty accesses(hits+misses) (Count)
board.cache_hierarchy.l2-cache-0.WritebackDirty.accesses::total          765                       # number of WritebackDirty accesses(hits+misses) (Count)
board.cache_hierarchy.l2-cache-0.power_state.pwrStateResidencyTicks::UNDEFINED   1215931000                       # Cumulative time (in ticks) in various power states (Tick)
board.cache_hierarchy.l2-cache-0.prefetcher.demandMshrMisses          552                       # demands not covered by prefetchs (Count)
board.cache_hierarchy.l2-cache-0.prefetcher.pfIssued         1272                       # number of hwpf issued (Count)
board.cache_hierarchy.l2-cache-0.prefetcher.pfUseful          313                       # number of useful prefetch (Count)
board.cache_hierarchy.l2-cache-0.prefetcher.pfUsefulButMiss            0                       # number of hit on prefetch but cache block is not in an usable state (Count)
board.cache_hierarchy.l2-cache-0.prefetcher.accuracy     0.246069                       # accuracy of the prefetcher (Count)
board.cache_hierarchy.l2-cache-0.prefetcher.coverage     0.361850                       # coverage brought by this prefetcher (Count)
board.cache_hierarchy.l2-cache-0.prefetcher.pfHitInCache          844                       # number of prefetches hitting in cache (Count)
board.cache_hierarchy.l2-cache-0.prefetcher.pfHitInMSHR           73                       # number of prefetches hitting in a MSHR (Count)
board.cache_hierarchy.l2-cache-0.prefetcher.pfHitInWB            0                       # number of prefetches hit in the Write Buffer (Count)
board.cache_hierarchy.l2-cache-0.prefetcher.pfLate          917                       # number of late prefetches (hitting in cache, MSHR or WB) (Count)
board.cache_hierarchy.l2-cache-0.prefetcher.pfIdentified         1381                       # number of prefetch candidates identified (Count)
board.cache_hierarchy.l2-cache-0.prefetcher.pfBufferHit           72                       # number of redundant prefetches already in prefetch queue (Count)
board.cache_hierarchy.l2-cache-0.prefetcher.pfInCache            0                       # number of redundant prefetches already in cache/mshr dropped (Count)
board.cache_hierarchy.l2-cache-0.prefetcher.pfRemovedDemand           27                       # number of prefetches dropped due to a demand for the same address (Count)
board.cache_hierarchy.l2-cache-0.prefetcher.pfRemovedFull            0                       # number of prefetches dropped due to prefetch queue size (Count)
board.cache_hierarchy.l2-cache-0.prefetcher.pfSpanPage           43                       # number of prefetches that crossed the page (Count)
board.cache_hierarchy.l2-cache-0.prefetcher.pfUsefulSpanPage           43                       # number of prefetches that is useful and crossed the page (Count)
board.cache_hierarchy.l2-cache-0.prefetcher.power_state.pwrStateResidencyTicks::UNDEFINED   1215931000                       # Cumulative time (in ticks) in various power states (Tick)
board.cache_hierarchy.l2-cache-0.tags.tagsInUse   815.075517                       # Average ticks per tags in use ((Tick/Count))
board.cache_hierarchy.l2-cache-0.tags.totalRefs        18280                       # Total number of references to valid blocks. (Count)
board.cache_hierarchy.l2-cache-0.tags.sampledRefs          907                       # Sample count of references to valid blocks. (Count)
board.cache_hierarchy.l2-cache-0.tags.avgRefs    20.154355                       # Average number of references to valid blocks. ((Count/Count))
board.cache_hierarchy.l2-cache-0.tags.warmupTick        77000                       # The tick when the warmup percentage was hit. (Tick)
board.cache_hierarchy.l2-cache-0.tags.occupancies::cache_hierarchy.l1d-cache-0.prefetcher    10.501287                       # Average occupied blocks per tick, per requestor ((Count/Tick))
board.cache_hierarchy.l2-cache-0.tags.occupancies::cache_hierarchy.l2-cache-0.prefetcher   330.400250                       # Average occupied blocks per tick, per requestor ((Count/Tick))
board.cache_hierarchy.l2-cache-0.tags.occupancies::processor.cores.core.inst   280.241413                       # Average occupied blocks per tick, per requestor ((Count/Tick))
board.cache_hierarchy.l2-cache-0.tags.occupancies::processor.cores.core.data   193.932566                       # Average occupied blocks per tick, per requestor ((Count/Tick))
board.cache_hierarchy.l2-cache-0.tags.avgOccs::cache_hierarchy.l1d-cache-0.prefetcher     0.002564                       # Average percentage of cache occupancy ((Ratio/Tick))
board.cache_hierarchy.l2-cache-0.tags.avgOccs::cache_hierarchy.l2-cache-0.prefetcher     0.080664                       # Average percentage of cache occupancy ((Ratio/Tick))
board.cache_hierarchy.l2-cache-0.tags.avgOccs::processor.cores.core.inst     0.068418                       # Average percentage of cache occupancy ((Ratio/Tick))
board.cache_hierarchy.l2-cache-0.tags.avgOccs::processor.cores.core.data     0.047347                       # Average percentage of cache occupancy ((Ratio/Tick))
board.cache_hierarchy.l2-cache-0.tags.avgOccs::total     0.198993                       # Average percentage of cache occupancy ((Ratio/Tick))
board.cache_hierarchy.l2-cache-0.tags.occupanciesTaskId::1022          366                       # Occupied blocks per task id (Count)
board.cache_hierarchy.l2-cache-0.tags.occupanciesTaskId::1024          541                       # Occupied blocks per task id (Count)
board.cache_hierarchy.l2-cache-0.tags.ageTaskId_1022::0            1                       # Occupied blocks per task id, per block age (Count)
board.cache_hierarchy.l2-cache-0.tags.ageTaskId_1022::1            1                       # Occupied blocks per task id, per block age (Count)
board.cache_hierarchy.l2-cache-0.tags.ageTaskId_1022::2           16                       # Occupied blocks per task id, per block age (Count)
board.cache_hierarchy.l2-cache-0.tags.ageTaskId_1022::3          348                       # Occupied blocks per task id, per block age (Count)
board.cache_hierarchy.l2-cache-0.tags.ageTaskId_1024::0           55                       # Occupied blocks per task id, per block age (Count)
board.cache_hierarchy.l2-cache-0.tags.ageTaskId_1024::3          486                       # Occupied blocks per task id, per block age (Count)
board.cache_hierarchy.l2-cache-0.tags.ratioOccsTaskId::1022     0.089355                       # Ratio of occupied blocks and all blocks, per task id (Ratio)
board.cache_hierarchy.l2-cache-0.tags.ratioOccsTaskId::1024     0.132080                       # Ratio of occupied blocks and all blocks, per task id (Ratio)
board.cache_hierarchy.l2-cache-0.tags.tagAccesses       288171                       # Number of tag accesses (Count)
board.cache_hierarchy.l2-cache-0.tags.dataAccesses       288171                       # Number of data accesses (Count)
board.cache_hierarchy.l2-cache-0.tags.power_state.pwrStateResidencyTicks::UNDEFINED   1215931000                       # Cumulative time (in ticks) in various power states (Tick)
board.cache_hierarchy.l2buses.transDist::ReadResp         8764                       # Transaction distribution (Count)
board.cache_hierarchy.l2buses.transDist::WritebackDirty          765                       # Transaction distribution (Count)
board.cache_hierarchy.l2buses.transDist::WritebackClean           82                       # Transaction distribution (Count)
board.cache_hierarchy.l2buses.transDist::CleanEvict         7876                       # Transaction distribution (Count)
board.cache_hierarchy.l2buses.transDist::HardPFReq          415                       # Transaction distribution (Count)
board.cache_hierarchy.l2buses.transDist::ReadExReq          467                       # Transaction distribution (Count)
board.cache_hierarchy.l2buses.transDist::ReadExResp          467                       # Transaction distribution (Count)
board.cache_hierarchy.l2buses.transDist::ReadSharedReq         8764                       # Transaction distribution (Count)
[...]
board.processor.cores.core.commitStats0.committedInstType::IntMult            3      0.00%     60.19% # Class of committed instruction. (Count)
board.processor.cores.core.commitStats0.committedInstType::IntDiv          152      0.02%     60.21% # Class of committed instruction. (Count)
board.processor.cores.core.commitStats0.committedInstType::FloatAdd            0      0.00%     60.21% # Class of committed instruction. (Count)
board.processor.cores.core.commitStats0.committedInstType::FloatCmp            0      0.00%     60.21% # Class of committed instruction. (Count)
board.processor.cores.core.commitStats0.committedInstType::FloatCvt            0      0.00%     60.21% # Class of committed instruction. (Count)
board.processor.cores.core.commitStats0.committedInstType::FloatMult            0      0.00%     60.21% # Class of committed instruction. (Count)
board.processor.cores.core.commitStats0.committedInstType::FloatMultAcc            0      0.00%     60.21% # Class of committed instruction. (Count)
board.processor.cores.core.commitStats0.committedInstType::FloatDiv            0      0.00%     60.21% # Class of committed instruction. (Count)
board.processor.cores.core.commitStats0.committedInstType::FloatMisc            0      0.00%     60.21% # Class of committed instruction. (Count)
board.processor.cores.core.commitStats0.committedInstType::FloatSqrt            0      0.00%     60.21% # Class of committed instruction. (Count)
board.processor.cores.core.commitStats0.committedInstType::SimdAdd            0      0.00%     60.21% # Class of committed instruction. (Count)
board.processor.cores.core.commitStats0.committedInstType::SimdAddAcc            0      0.00%     60.21% # Class of committed instruction. (Count)
board.processor.cores.core.commitStats0.committedInstType::SimdAlu            0      0.00%     60.21% # Class of committed instruction. (Count)
board.processor.cores.core.commitStats0.committedInstType::SimdCmp            0      0.00%     60.21% # Class of committed instruction. (Count)
board.processor.cores.core.commitStats0.committedInstType::SimdCvt            0      0.00%     60.21% # Class of committed instruction. (Count)
board.processor.cores.core.commitStats0.committedInstType::SimdMisc            0      0.00%     60.21% # Class of committed instruction. (Count)
board.processor.cores.core.commitStats0.committedInstType::SimdMult            0      0.00%     60.21% # Class of committed instruction. (Count)
board.processor.cores.core.commitStats0.committedInstType::SimdMultAcc            0      0.00%     60.21% # Class of committed instruction. (Count)
board.processor.cores.core.commitStats0.committedInstType::SimdMatMultAcc            0      0.00%     60.21% # Class of committed instruction. (Count)
board.processor.cores.core.commitStats0.committedInstType::SimdShift            0      0.00%     60.21% # Class of committed instruction. (Count)
board.processor.cores.core.commitStats0.committedInstType::SimdShiftAcc            0      0.00%     60.21% # Class of committed instruction. (Count)
board.processor.cores.core.commitStats0.committedInstType::SimdDiv            0      0.00%     60.21% # Class of committed instruction. (Count)
board.processor.cores.core.commitStats0.committedInstType::SimdSqrt            0      0.00%     60.21% # Class of committed instruction. (Count)
board.processor.cores.core.commitStats0.committedInstType::SimdFloatAdd            0      0.00%     60.21% # Class of committed instruction. (Count)
board.processor.cores.core.commitStats0.committedInstType::SimdFloatAlu            0      0.00%     60.21% # Class of committed instruction. (Count)
board.processor.cores.core.commitStats0.committedInstType::SimdFloatCmp            0      0.00%     60.21% # Class of committed instruction. (Count)
board.processor.cores.core.commitStats0.committedInstType::SimdFloatCvt            0      0.00%     60.21% # Class of committed instruction. (Count)
board.processor.cores.core.commitStats0.committedInstType::SimdFloatDiv            0      0.00%     60.21% # Class of committed instruction. (Count)
board.processor.cores.core.commitStats0.committedInstType::SimdFloatMisc            0      0.00%     60.21% # Class of committed instruction. (Count)
board.processor.cores.core.commitStats0.committedInstType::SimdFloatMult            0      0.00%     60.21% # Class of committed instruction. (Count)
board.processor.cores.core.commitStats0.committedInstType::SimdFloatMultAcc            0      0.00%     60.21% # Class of committed instruction. (Count)
board.processor.cores.core.commitStats0.committedInstType::SimdFloatMatMultAcc            0      0.00%     60.21% # Class of committed instruction. (Count)
board.processor.cores.core.commitStats0.committedInstType::SimdFloatSqrt            0      0.00%     60.21% # Class of committed instruction. (Count)
board.processor.cores.core.commitStats0.committedInstType::SimdReduceAdd            0      0.00%     60.21% # Class of committed instruction. (Count)
board.processor.cores.core.commitStats0.committedInstType::SimdReduceAlu            0      0.00%     60.21% # Class of committed instruction. (Count)
board.processor.cores.core.commitStats0.committedInstType::SimdReduceCmp            0      0.00%     60.21% # Class of committed instruction. (Count)
board.processor.cores.core.commitStats0.committedInstType::SimdFloatReduceAdd            0      0.00%     60.21% # Class of committed instruction. (Count)
board.processor.cores.core.commitStats0.committedInstType::SimdFloatReduceCmp            0      0.00%     60.21% # Class of committed instruction. (Count)
board.processor.cores.core.commitStats0.committedInstType::SimdAes            0      0.00%     60.21% # Class of committed instruction. (Count)
board.processor.cores.core.commitStats0.committedInstType::SimdAesMix            0      0.00%     60.21% # Class of committed instruction. (Count)
board.processor.cores.core.commitStats0.committedInstType::SimdSha1Hash            0      0.00%     60.21% # Class of committed instruction. (Count)
board.processor.cores.core.commitStats0.committedInstType::SimdSha1Hash2            0      0.00%     60.21% # Class of committed instruction. (Count)
board.processor.cores.core.commitStats0.committedInstType::SimdSha256Hash            0      0.00%     60.21% # Class of committed instruction. (Count)
board.processor.cores.core.commitStats0.committedInstType::SimdSha256Hash2            0      0.00%     60.21% # Class of committed instruction. (Count)
board.processor.cores.core.commitStats0.committedInstType::SimdShaSigma2            0      0.00%     60.21% # Class of committed instruction. (Count)
board.processor.cores.core.commitStats0.committedInstType::SimdShaSigma3            0      0.00%     60.21% # Class of committed instruction. (Count)
board.processor.cores.core.commitStats0.committedInstType::SimdPredAlu            0      0.00%     60.21% # Class of committed instruction. (Count)
board.processor.cores.core.commitStats0.committedInstType::Matrix            0      0.00%     60.21% # Class of committed instruction. (Count)
board.processor.cores.core.commitStats0.committedInstType::MatrixMov            0      0.00%     60.21% # Class of committed instruction. (Count)
board.processor.cores.core.commitStats0.committedInstType::MatrixOP            0      0.00%     60.21% # Class of committed instruction. (Count)
board.processor.cores.core.commitStats0.committedInstType::MemRead       171181     25.46%     85.67% # Class of committed instruction. (Count)
board.processor.cores.core.commitStats0.committedInstType::MemWrite        96347     14.33%    100.00% # Class of committed instruction. (Count)
board.processor.cores.core.commitStats0.committedInstType::FloatMemRead            0      0.00%    100.00% # Class of committed instruction. (Count)
board.processor.cores.core.commitStats0.committedInstType::FloatMemWrite           12      0.00%    100.00% # Class of committed instruction. (Count)
board.processor.cores.core.commitStats0.committedInstType::IprAccess            0      0.00%    100.00% # Class of committed instruction. (Count)
board.processor.cores.core.commitStats0.committedInstType::InstPrefetch            0      0.00%    100.00% # Class of committed instruction. (Count)
board.processor.cores.core.commitStats0.committedInstType::SimdUnitStrideLoad            0      0.00%    100.00% # Class of committed instruction. (Count)
board.processor.cores.core.commitStats0.committedInstType::SimdUnitStrideStore            0      0.00%    100.00% # Class of committed instruction. (Count)
board.processor.cores.core.commitStats0.committedInstType::SimdUnitStrideMaskLoad            0      0.00%    100.00% # Class of committed instruction. (Count)
board.processor.cores.core.commitStats0.committedInstType::SimdUnitStrideMaskStore            0      0.00%    100.00% # Class of committed instruction. (Count)
board.processor.cores.core.commitStats0.committedInstType::SimdStridedLoad            0      0.00%    100.00% # Class of committed instruction. (Count)
board.processor.cores.core.commitStats0.committedInstType::SimdStridedStore            0      0.00%    100.00% # Class of committed instruction. (Count)
board.processor.cores.core.commitStats0.committedInstType::SimdIndexedLoad            0      0.00%    100.00% # Class of committed instruction. (Count)
board.processor.cores.core.commitStats0.committedInstType::SimdIndexedStore            0      0.00%    100.00% # Class of committed instruction. (Count)
board.processor.cores.core.commitStats0.committedInstType::SimdWholeRegisterLoad            0      0.00%    100.00% # Class of committed instruction. (Count)
board.processor.cores.core.commitStats0.committedInstType::SimdWholeRegisterStore            0      0.00%    100.00% # Class of committed instruction. (Count)
board.processor.cores.core.commitStats0.committedInstType::SimdUnitStrideFaultOnlyFirstLoad            0      0.00%    100.00% # Class of committed instruction. (Count)
board.processor.cores.core.commitStats0.committedInstType::SimdUnitStrideSegmentedLoad            0      0.00%    100.00% # Class of committed instruction. (Count)
board.processor.cores.core.commitStats0.committedInstType::SimdUnitStrideSegmentedStore            0      0.00%    100.00% # Class of committed instruction. (Count)
board.processor.cores.core.commitStats0.committedInstType::SimdExt            0      0.00%    100.00% # Class of committed instruction. (Count)
board.processor.cores.core.commitStats0.committedInstType::SimdFloatExt            0      0.00%    100.00% # Class of committed instruction. (Count)
board.processor.cores.core.commitStats0.committedInstType::SimdConfig            0      0.00%    100.00% # Class of committed instruction. (Count)
board.processor.cores.core.commitStats0.committedInstType::total       672443                       # Class of committed instruction. (Count)
board.processor.cores.core.commitStats0.committedControl::IsControl        78905                       # Class of control type instructions committed (Count)
board.processor.cores.core.commitStats0.committedControl::IsDirectControl        62947                       # Class of control type instructions committed (Count)
board.processor.cores.core.commitStats0.committedControl::IsIndirectControl        15958                       # Class of control type instructions committed (Count)
board.processor.cores.core.commitStats0.committedControl::IsCondControl        47087                       # Class of control type instructions committed (Count)
board.processor.cores.core.commitStats0.committedControl::IsUncondControl        31818                       # Class of control type instructions committed (Count)
board.processor.cores.core.commitStats0.committedControl::IsCall        15461                       # Class of control type instructions committed (Count)
board.processor.cores.core.commitStats0.committedControl::IsReturn        15456                       # Class of control type instructions committed (Count)
board.processor.cores.core.exec_context.thread_0.numMatAluAccesses            0                       # Number of matrix alu accesses (Count)
board.processor.cores.core.exec_context.thread_0.numCallsReturns        30917                       # Number of times a function call or return occured (Count)
board.processor.cores.core.exec_context.thread_0.numMatInsts            0                       # Number of matrix instructions (Count)
board.processor.cores.core.exec_context.thread_0.numIdleCycles     0.001000                       # Number of idle cycles (Cycle)
board.processor.cores.core.exec_context.thread_0.numBusyCycles 1215930.999000                       # Number of busy cycles (Cycle)
board.processor.cores.core.exec_context.thread_0.notIdleFraction     1.000000                       # Percentage of non-idle cycles (Ratio)
board.processor.cores.core.exec_context.thread_0.idleFraction     0.000000                       # Percentage of idle cycles (Ratio)
board.processor.cores.core.executeStats0.numInsts            0                       # Number of executed instructions (Count)
board.processor.cores.core.executeStats0.numNop            0                       # Number of nop insts executed (Count)
board.processor.cores.core.executeStats0.numBranches            0                       # Number of branches executed (Count)
board.processor.cores.core.executeStats0.numLoadInsts            0                       # Number of load instructions executed (Count)
board.processor.cores.core.executeStats0.numStoreInsts       267540                       # Number of stores executed (Count)
board.processor.cores.core.executeStats0.instRate            0                       # Inst execution rate ((Count/Cycle))
board.processor.cores.core.executeStats0.numFpAluAccesses           12                       # Number of float alu accesses (Count)
board.processor.cores.core.executeStats0.numFpRegReads           12                       # Number of times the floating registers were read (Count)
board.processor.cores.core.executeStats0.numFpRegWrites            0                       # Number of times the floating registers were written (Count)
board.processor.cores.core.executeStats0.numIntAluAccesses       671777                       # Number of integer alu accesses (Count)
board.processor.cores.core.executeStats0.numIntRegReads       759727                       # Number of times the integer registers were read (Count)
board.processor.cores.core.executeStats0.numIntRegWrites       512492                       # Number of times the integer registers were written (Count)
board.processor.cores.core.executeStats0.numMemRefs       267540                       # Number of memory refs (Count)
board.processor.cores.core.executeStats0.numMiscRegReads        28754                       # Number of times the Misc registers were read (Count)
board.processor.cores.core.executeStats0.numVecAluAccesses            0                       # Number of vector alu accesses (Count)
board.processor.cores.core.executeStats0.numDiscardedOps            0                       # Number of ops (including micro ops) which were discarded before commit (Count)
board.processor.cores.core.fetchStats0.numInsts       672406                       # Number of instructions fetched (thread level) (Count)
board.processor.cores.core.fetchStats0.numOps       672443                       # Number of ops (including micro ops) fetched (thread level) (Count)
board.processor.cores.core.fetchStats0.fetchRate     0.552997                       # Number of inst fetches per cycle ((Count/Cycle))
board.processor.cores.core.fetchStats0.numBranches        78905                       # Number of branches fetched (Count)
board.processor.cores.core.fetchStats0.branchRate     0.064893                       # Number of branch fetches per cycle (Ratio)
board.processor.cores.core.fetchStats0.numFetchSuspends            0                       # Number of times Execute suspended instruction fetching (Count)
board.processor.cores.core.mmu.dtb.readHits            0                       # read hits (Count)
board.processor.cores.core.mmu.dtb.readMisses            0                       # read misses (Count)
board.processor.cores.core.mmu.dtb.readAccesses            0                       # read accesses (Count)
board.processor.cores.core.mmu.dtb.writeHits            0                       # write hits (Count)
board.processor.cores.core.mmu.dtb.writeMisses            0                       # write misses (Count)
board.processor.cores.core.mmu.dtb.writeAccesses            0                       # write accesses (Count)
board.processor.cores.core.mmu.dtb.hits             0                       # Total TLB (read and write) hits (Count)
board.processor.cores.core.mmu.dtb.misses            0                       # Total TLB (read and write) misses (Count)
board.processor.cores.core.mmu.dtb.accesses            0                       # Total TLB (read and write) accesses (Count)
board.processor.cores.core.mmu.dtb.walker.num_4kb_walks            0                       # Completed page walks with 4KB pages (Count)
board.processor.cores.core.mmu.dtb.walker.num_2mb_walks            0                       # Completed page walks with 2MB pages (Count)
board.processor.cores.core.mmu.dtb.walker.power_state.pwrStateResidencyTicks::UNDEFINED   1215931000                       # Cumulative time (in ticks) in various power states (Tick)
board.processor.cores.core.mmu.itb.readHits            0                       # read hits (Count)
board.processor.cores.core.mmu.itb.readMisses            0                       # read misses (Count)
board.processor.cores.core.mmu.itb.readAccesses            0                       # read accesses (Count)
board.processor.cores.core.mmu.itb.writeHits            0                       # write hits (Count)
board.processor.cores.core.mmu.itb.writeMisses            0                       # write misses (Count)
board.processor.cores.core.mmu.itb.writeAccesses            0                       # write accesses (Count)
board.processor.cores.core.mmu.itb.hits             0                       # Total TLB (read and write) hits (Count)
board.processor.cores.core.mmu.itb.misses            0                       # Total TLB (read and write) misses (Count)
board.processor.cores.core.mmu.itb.accesses            0                       # Total TLB (read and write) accesses (Count)
board.processor.cores.core.mmu.itb.walker.num_4kb_walks            0                       # Completed page walks with 4KB pages (Count)
board.processor.cores.core.mmu.itb.walker.num_2mb_walks            0                       # Completed page walks with 2MB pages (Count)
board.processor.cores.core.mmu.itb.walker.power_state.pwrStateResidencyTicks::UNDEFINED   1215931000                       # Cumulative time (in ticks) in various power states (Tick)
board.processor.cores.core.power_state.pwrStateResidencyTicks::ON   1215931000                       # Cumulative time (in ticks) in various power states (Tick)
board.processor.cores.core.thread_0.numInsts            0                       # Number of Instructions committed (Count)
board.processor.cores.core.thread_0.numOps            0                       # Number of Ops committed (Count)
board.processor.cores.core.thread_0.numMemRefs            0                       # Number of Memory References (Count)
board.processor.cores.core.workload.numSyscalls           14                       # Number of system calls (Count)
board.workload.inst.arm                             0                       # number of arm instructions executed (Count)
board.workload.inst.quiesce                         0                       # number of quiesce instructions executed (Count)

---------- End Simulation Statistics   ----------
